// $Id: Distribution IEEE13 model. Simple model for first integration tests  (10-20 buses,  Voltage dependent load,  no time dependence)
// Yining Qin; qin3@LLNL.GOV


//////////////////////////

//  START               //

//////////////////////////



//--- Define Set Parameters - start

#set minimum_timestep=60;
#set profiler=1;
#set relax_naming_rules=1;

//--- Define Set Parameters - end


//--- Define simulation time - start
clock {
    timezone PST+8PDT;
     starttime '2011-07-04 00:00:00';
     stoptime '2011-07-05 00:00:00';

}
//--- Define simulation time - end



//--- Define Modules - start

module tape;
module powerflow {
     solver_method NR;
     NR_iteration_limit 50;
   };

//--- Define Modules - End


//---Define line objects - start


object overhead_line:650632 {
     phases ABCN;
//     name overhead_line_650-632;
     name Link12;
     from node_650;
     to node_632;
     length 500;
     configuration line_configuration:602;
}


object overhead_line:632645 {
     phases ABCN;
     name overhead_line_632-645;
     from node_632;
     to node_645;
     length 500;
     configuration line_configuration:602;
}

object overhead_line:645646 {
     phases ABCN;
     name overhead_line_645-646;
     from node_645;
     to node_646;
     length 500;
     configuration line_configuration:602;
}


object overhead_line:632633 {
     phases ABCN;
     name overhead_line_632-633;
     from node_632;
     to node_633;
     length 500;
     configuration line_configuration:602;
}

object overhead_line:632671 {
     phases ABCN;
     name overhead_line_632-671;
     from node_632;
     to node_671;
     length 500;
     configuration line_configuration:602;
}


object overhead_line:671684 {
     phases ABCN;
     name overhead_line_671-684;
     from node_671;
     to node_684;
     length 300;
     configuration line_configuration:602;
}

object overhead_line:671680 {
     phases ABCN;
     name overhead_line_671-680;
     from node_671;
     to node_680;
     length 300;
     configuration line_configuration:602;
}


 object overhead_line:684611 {
      phases ABCN;
      name overhead_line_684-611;
      from node_684;
      to node_611;
      length 300;
      configuration line_configuration:602;
}

object overhead_line:684652 {
      phases ABCN;
      name overhead_line_684-652;
      from node_684;
      to node_652;
      length 300;
      configuration line_configuration:602;
}


object overhead_line:692675 {
     phases ABCN;
     name overhead_line_692-675;
     from node_692;
     to node_675;
     length 500;
     configuration line_configuration:602;
}


//---Define line objects - end



//---Define transformer - start

object  transformer{
name  transformer_Link_network_to_node_650;
phases  A|B|C;
from  swingbus_meter;
to  node_650;
configuration  network_node_650_transformer_configuration1;
}

//---Define transformer - end



//---Create node objects - start

object  meter{
  name  swingbus_meter;
  parent  network;
  nominal_voltage  7199.558;
  phases  ABCN;
}

object  node{
name  network;
bustype  SWING;
phases  A|B|C;
voltage_A  +7199.558+0.000j;
voltage_B  -3599.779-6235.000j;
voltage_C  -3599.779+6235.000j;
nominal_voltage  7199.558;
}

object node {
     name node_650;
      phases ABCN;
      voltage_A 2401.7771;
      voltage_B -1200.8886-2080.000j;
      voltage_C -1200.8886+2080.000j;
      nominal_voltage 2401.7771;
}


object node {
     name node_632;
     phases ABCN;
     voltage_A 2401.7771;
     voltage_B -1200.8886-2080.000j;
     voltage_C -1200.8886+2080.000j;
     nominal_voltage 2401.7771;
}

object node {
     name node_645;
     phases ABCN;
     voltage_A 2401.7771;
     voltage_B -1200.8886-2080.000j;
     voltage_C -1200.8886+2080.000j;
     nominal_voltage 2401.7771;
}

object node {
     name node_646;
     phases ABCN;
     voltage_A 2401.7771;
     voltage_B -1200.8886-2080.000j;
     voltage_C -1200.8886+2080.000j;
     nominal_voltage 2401.7771;
}


object node {
     name node_633;
     phases ABCN;
     voltage_A 2401.7771;
     voltage_B -1200.8886-2080.000j;
     voltage_C -1200.8886+2080.000j;
     nominal_voltage 2401.7771;
}

object node {
     name node_634;
     phases ABCN;
     voltage_A 480.000+0j;
     voltage_B -240.000-415.6922j;
     voltage_C -240.000+415.6922j;
     nominal_voltage 480.000;
}

object node {
       name node_671;
       phases ABCN;
       voltage_A 2401.7771;
       voltage_B -1200.8886-2080.000j;
       voltage_C -1200.8886+2080.000j;
       nominal_voltage 2401.7771;
}


object node {
       name node_680;
       phases ABCN;
       voltage_A 2401.7771;
       voltage_B -1200.8886-2080.000j;
       voltage_C -1200.8886+2080.000j;
       nominal_voltage 2401.7771;
}


object node {
      name node_684;
      phases ABCN;
      voltage_A 2401.7771;
      voltage_B -1200.8886-2080.000j;
      voltage_C -1200.8886+2080.000j;
      nominal_voltage 2401.7771;
}

object node {
      name node_611;
      phases ABCN;
      voltage_A 2401.7771;
      voltage_B -1200.8886-2080.000j;
      voltage_C -1200.8886+2080.000j;
      nominal_voltage 2401.7771;
}

object node {
      name node_652;
      phases ABCN;
      voltage_A 2401.7771;
      voltage_B -1200.8886-2080.000j;
      voltage_C -1200.8886+2080.000j;
      nominal_voltage 2401.7771;
}

object node {
      name node_692;
      phases ABCN;
      voltage_A 2401.7771;
      voltage_B -1200.8886-2080.000j;
      voltage_C -1200.8886+2080.000j;
      nominal_voltage 2401.7771;
}

object node {
      name node_675;
      phases ABCN;
      voltage_A 2401.7771;
      voltage_B -1200.8886-2080.000j;
      voltage_C -1200.8886+2080.000j;
      nominal_voltage 2401.7771;
}




//---Create node objects - end


//---Create load objects - start

object load {
     name load_646;
         phases ABCN;
    constant_power_A 170000+125000j;
    constant_power_B 170000+125000j;
     constant_power_C 170000+125000j;
     nominal_voltage 2401.7771;
}

object overhead_line {
      phases ABCN;
      name overhead_line_node_646-load_646;
      from load_646;
      to node_646;
      length 300;
      configuration line_configuration:602;
}




object load {
     name load_611;
    parent node_611;
     phases ABCN;
    constant_power_A 170000+125000j;
    constant_power_B 170000+125000j;
     constant_power_C 170000+125000j;
     nominal_voltage 2401.7771;
}

object load {
     name load_652;
    parent node_652;
     phases ABCN;
    constant_power_A 170000+125000j;
    constant_power_B 170000+125000j;
     constant_power_C 170000+125000j;
     nominal_voltage 2401.7771;
}

object load {
     name load_680;
    parent node_680;
     phases ABCN;
    constant_power_A 170000+125000j;
    constant_power_B 170000+125000j;
     constant_power_C 170000+125000j;
     nominal_voltage 2401.7771;
}

object load {
     name load_675;
    parent node_675;
     phases ABCN;
    constant_power_A 770000+820000j;
    constant_power_B 770000+820000j;
     constant_power_C 770000+820000j;
     nominal_voltage 2401.7771;
}


object load {
     name load_634;
    parent node_634;
     phases ABCN;
    constant_power_A 7700+820j;
    constant_power_B 7700+820j;
     constant_power_C 7700+820j;
     nominal_voltage 480.000;
}


//---Create load objects - end



//---Define Switch - start

object switch:671692 {
     phases ABCN;
     name switch_671-692;
     from node_671;
     to node_692;
     status CLOSED;
}

//--- Define Switch - end

//---Define Transformer - start

object transformer:633634 {
      phases ABCN;
      name transformer_633-634;
      from node_633;
      to node_634;
      configuration transformer_configuration:400;
}

//---Define Transformer - end

//---Define Regulator - start

//    object regulator:650632 {
//        name Reg1;
//         phases ABC;
//         from node_650;
//         to node_632;
//         configuration regulator_configuration:650632;
//    }

//---Define Regulator - end


////--- Define Equipment config - start

//---Define Transformer config - start

object transformer_configuration:400 {
    connect_type WYE_WYE;
      install_type PADMOUNT;
      power_rating 500;
      primary_voltage 4160;
      secondary_voltage 480;
      resistance 0.011;
      reactance 0.02;
}


object  transformer_configuration{
name  network_node_650_transformer_configuration1;
connect_type  2;
power_rating   6000;
powerA_rating  ;
primary_voltage  12470;
secondary_voltage  4160;
resistance  0.01;
reactance  0.06;
}


//---Define Transformer config - end


//---Define Regulator config - start

object regulator_configuration:650632 {
    connect_type 1;
    band_center 2401;
    band_width 40;
    time_delay 30.0;
    raise_taps 16;
    lower_taps 16;
    current_transducer_ratio 700;
    power_transducer_ratio 20;
    compensator_r_setting_A 3.0;
    compensator_r_setting_B 3.0;
    compensator_r_setting_C 3.0;
    compensator_x_setting_A 9.0;
    compensator_x_setting_B 9.0;
    compensator_x_setting_C 9.0;
    CT_phase ABC;
    PT_phase ABC;
    regulation 0.10;
    Control OUTPUT_VOLTAGE;
    Type A;
    tap_pos_A 1;
    tap_pos_B 1;
    tap_pos_C 1;
}

//---Define Regulator config - end




//--- Define line conductor - start

object overhead_line_conductor:6010 {
    geometric_mean_radius 0.031300;
    resistance 0.185900;
}

object overhead_line_conductor:6020 {
    geometric_mean_radius 0.00814;
    resistance 0.592000;
}

object overhead_line_conductor:6030 {
    geometric_mean_radius 0.004460;
    resistance 1.120000;
}

object underground_line_conductor:6060 {
     outer_diameter 1.290000;
     conductor_gmr 0.017100;
     conductor_diameter 0.567000;
     conductor_resistance 0.410000;
     neutral_gmr 0.0020800;
     neutral_resistance 14.87200;
     neutral_diameter 0.0640837;
     neutral_strands 13.000000;
     shield_gmr 0.000000;
     shield_resistance 0.000000;
}

object underground_line_conductor:6070 {
     outer_diameter 1.060000;
     conductor_gmr 0.011100;
     conductor_diameter 0.368000;
     conductor_resistance 0.970000;
     neutral_gmr 0.011100;
     neutral_resistance 0.970000;
     neutral_diameter 0.0640837;
     neutral_strands 6.000000;
     shield_gmr 0.000000;
     shield_resistance 0.000000;
}

//--- Define line conductor - End



//--- Overhead line configurations - start
object line_spacing:500601 {
    distance_AB 2.5;
    distance_AC 4.5;
    distance_BC 7.0;
    distance_BN 5.656854;
    distance_AN 4.272002;
    distance_CN 5.0;
}

object line_spacing:500602 {
    distance_AC 2.5;
    distance_AB 4.5;
    distance_BC 7.0;
    distance_CN 5.656854;
    distance_AN 4.272002;
    distance_BN 5.0;
}

object line_spacing:505603 {
    distance_AC 0.0;
    distance_AB 0.0;
    distance_BC 7.0;
    distance_AN 0.0;
    distance_CN 5.656854;
    distance_BN 5.0;
}

object line_spacing:505604 {
    distance_AC 7.0;
    distance_AB 0.0;
    distance_BC 0.0;
    distance_AN 5.656854;
    distance_CN 5.0;
    distance_BN 0.0;
}

object line_spacing:510 {
    distance_AC 0.0;
    distance_AB 0.0;
    distance_BC 0.0;
    distance_AN 0.0;
    distance_CN 5.0;
    distance_BN 0.0;
}

object line_configuration:601 {
    conductor_A overhead_line_conductor:6010;
    conductor_B overhead_line_conductor:6010;
    conductor_C overhead_line_conductor:6010;
    conductor_N overhead_line_conductor:6020;
    spacing line_spacing:500601;
}

object line_configuration:602 {
    conductor_A overhead_line_conductor:6020;
    conductor_B overhead_line_conductor:6020;
    conductor_C overhead_line_conductor:6020;
    conductor_N overhead_line_conductor:6020;
    spacing line_spacing:500602;
}

object line_configuration:603 {
    conductor_B overhead_line_conductor:6030;
    conductor_C overhead_line_conductor:6030;
    conductor_N overhead_line_conductor:6030;
    spacing line_spacing:505603;
}

object line_configuration:604 {
    conductor_A overhead_line_conductor:6030;
    conductor_C overhead_line_conductor:6030;
    conductor_N overhead_line_conductor:6030;
    spacing line_spacing:505604;
}

object line_configuration:605 {
    conductor_C overhead_line_conductor:6030;
    conductor_N overhead_line_conductor:6030;
    spacing line_spacing:510;
}

//--- Overhead line configurations - End

//---Underground line configuration - start

object line_spacing:515 {
     distance_AB 0.500000;
     distance_BC 0.500000;
     distance_AC 1.000000;
     distance_AN 0.000000;
     distance_BN 0.000000;
     distance_CN 0.000000;
}

object line_spacing:520 {
     distance_AB 0.000000;
     distance_BC 0.000000;
     distance_AC 0.000000;
     distance_AN 0.083333;
     distance_BN 0.000000;
     distance_CN 0.000000;
}

object line_configuration:606 {
     conductor_A underground_line_conductor:6060;
     conductor_B underground_line_conductor:6060;
     conductor_C underground_line_conductor:6060;
     spacing line_spacing:515;
}

object line_configuration:607 {
     conductor_A underground_line_conductor:6070;
     conductor_N underground_line_conductor:6070;
     spacing line_spacing:520;
}

//---Underground line configuration - end



////---Define Equipment config - end


////--- Record Data - start



// record transformer from network to node 650 - start

//object recorder {
//parent transformer_Link_network_to_node_650;
//property power_out_real,power_out,power_out_A,power_out_B,power_out_C;
//file transformer_network_to_node_650.csv;
//interval 60;
//limit  -1;
//
//}

// record transformer from network to node 650 - end


// record overhead_line - start

//object recorder {
//parent overhead_line_650-632;
//property power_in,power_in_A,power_in_B,power_in_C,current_in_A,current_in_B,current_in_C;
//file overhead_line_650-632.csv;
//interval 60;
//limit  -1;


//}

// record overhead_line - end


// record  node 650 - start

//object recorder {
//parent node_650;
//property voltage_A,voltage_B,voltage_C;
//file node_650_voltage.csv;
//interval 60;
//limit  -1;

//}

// record  node 650 - end


object recorder {
  parent swingbus_meter;
  property measured_power,measured_power_A,measured_power_B,measured_power_C,measured_current_A,measured_current_B,measured_current_C,measured_voltage_A,measured_voltage_B,measured_voltage_C;
  file swingbus_meter.csv;
  interval 1;
  limit  -1;
}

////--- Record Data - end

//////////////////////////------------------------------------------------------------------------------------------------------

//  END                 //

//////////////////////////------------------------------------------------------------------------------------------------------
