function mpc = case1354pegase_res
%CASE1354PEGASE_RES

%% MATPOWER Case Format : Version 2
mpc.version = '2';

%%-----  Power Flow Data  -----%%
%% system MVA base
mpc.baseMVA = 100;

%% bus data
%	bus_i	type	Pd	Qd	Gs	Bs	area	Vm	Va	baseKV	zone	Vmax	Vmin
mpc.bus = [
	3	1	151	48.8	0	4.69	0	1.01667381	-21.690087	220	5	1.1	0.9;
	4	1	171.41	23.4	0	2.1	0	1.02665025	-6.96355688	220	5	1.1	0.9;
	10	1	134	24.7	0	12.44	0	1.03851644	-24.1536819	220	5	1.1	0.9;
	21	1	161.2	39.3	0	30.71	0	1.03617709	-21.83071	220	5	1.1	0.9;
	22	1	0	-0	0	0.85	0	1.03507162	-18.3868902	220	5	1.1	0.9;
	26	1	167.3	54.8	0	110.54	0	1.03228273	-3.28200869	380	5	1.1	0.9;
	29	1	152.9	49.4	0	27.65	0	0.994408252	-13.6767865	380	5	1.1	0.9;
	44	1	-0	0	0	7.27	0	1.04581149	-22.0526452	220	5	1.1	0.9;
	53	1	48.65	16.1	0	7.14	0	1.06343628	-9.11827132	220	5	1.1	0.9;
	58	1	0	0	0	2.31	0	0.986242542	-15.6088024	380	5	1.1	0.9;
	59	1	119.2	20.7	0	3.31	0	1.03681643	-23.59109	220	5	1.1	0.9;
	90	1	363.25	115.39	0	3.95	0	1.04218722	-27.4678613	220	5	1.1	0.9;
	96	1	-8.4	28.66	0	3.49	0	1.03043962	-15.5684583	220	5	1.1	0.9;
	113	1	-0	-0	0	6.532711	0	1.03071953	-14.1462297	380	5	1.1	0.9;
	115	1	0	-0	0	4.21	0	1.06681518	-19.6090593	220	5	1.1	0.9;
	118	1	704.53	-35.33	0	13.102834	0	1.02026357	-11.3575729	380	5	1.1	0.9;
	124	2	0	0	0	0	0	1.081537	8.34861415	220	5	1.1	0.9;
	128	1	23.73	12.7	0	0.52	0	1.02052541	-15.9973954	220	5	1.1	0.9;
	145	1	38.34	5.6	0	7.64	0	1.03909547	-8.86727735	220	5	1.1	0.9;
	148	1	32.34	12	0	6.1	0	1.04156827	-7.96703991	220	5	1.1	0.9;
	150	2	0	0	0	0	0	1.062805	2.56056116	220	5	1.1	0.9;
	163	1	147.76	32.73	0	8.34	0	1.04705223	-10.5937589	220	5	1.1	0.9;
	171	1	100.8	13.2	0	5.24	0	1.0696392	-25.0573753	220	5	1.1	0.9;
	174	1	370.5	-17	0	9.91	0	1.07480197	-27.7766043	220	5	1.1	0.9;
	184	1	-0	-0	0	2.42	0	1.04298749	-12.0125713	220	5	1.1	0.9;
	188	1	36.84	13.9	0	3.3	0	1.01876048	-19.4556338	220	5	1.1	0.9;
	195	1	73.14	21.55	0	8.52	0	1.05633572	-8.56287529	220	5	1.1	0.9;
	196	1	0	-0	0	12.48	0	1.07479314	-26.1874262	220	5	1.1	0.9;
	198	1	39.74	11.8	0	1.44	0	1.01677287	-16.2399149	220	5	1.1	0.9;
	207	1	321.98	84.4	0	1.34	0	1.02689258	-13.5811591	220	5	1.1	0.9;
	216	1	155.6	54.7	0	2.21	0	1.03936156	-24.4812558	220	5	1.1	0.9;
	217	1	105.2	0.1	0	7.36	0	1.04276504	-2.54384097	220	5	1.1	0.9;
	218	1	69.83	15.12	0	2.23	0	1.04592612	-13.0399739	220	5	1.1	0.9;
	221	2	0	0	0	0	0	0.984682	-16.2438249	380	5	1.1	0.9;
	225	1	0	0	0	1.15	0	1.06377882	-19.999598	220	5	1.1	0.9;
	280	1	119.6	29.6	0	5.34	0	1.03572307	-11.1194669	220	5	1.1	0.9;
	283	1	27.33	11.9	0	1.17	0	1.03558776	-12.2714113	220	5	1.1	0.9;
	292	1	13.82	1.4	0	0.7	0	1.04755322	-14.6964581	220	5	1.1	0.9;
	305	1	103	12	0	0.63	0	1.06705903	-32.5091782	220	5	1.1	0.9;
	306	1	-0	0	0	4.76	0	1.02999906	-18.6886256	220	5	1.1	0.9;
	314	1	163.1	46.3	0	10.6	0	1.00558665	-15.9486873	220	5	1.1	0.9;
	333	1	524.5	43	0	6.85	0	1.01494521	-42.0452259	220	5	1.1	0.9;
	338	2	0	0	0	0	0	1.048249	-6.09158879	220	5	1.1	0.9;
	346	1	197.5	48.3	0	0.71	0	1.04069658	-21.1892107	220	5	1.1	0.9;
	350	1	110.4	26.2	0	5.62	0	1.04317731	-24.1641294	220	5	1.1	0.9;
	352	2	0	0	0	0	0	1.055378	0.410266195	380	5	1.1	0.9;
	367	1	65.17	-51.5	0	4.85	0	1.07160967	-23.4667082	220	5	1.1	0.9;
	401	1	56.5	36.29	0	3.08	0	1.02654727	-14.2050901	220	5	1.1	0.9;
	408	1	129.1	7.4	0	0.04	0	1.03979036	-11.792479	220	5	1.1	0.9;
	410	1	170.89	50.38	0	6.44	0	1.04156657	-26.3905988	220	5	1.1	0.9;
	413	2	0	0	0	0	0	1.05013	-6.45033342	220	5	1.1	0.9;
	416	1	70.68	13.5	0	6.96	0	1.04580021	-6.65576767	220	5	1.1	0.9;
	426	1	123.1	6.5	0	3.25	0	1.04050757	-18.337477	220	5	1.1	0.9;
	432	1	-0	-0	0	68.517663	0	1.04780284	2.42155498	380	5	1.1	0.9;
	444	1	0	-0	0	2.45	0	1.03654469	-12.3233754	220	5	1.1	0.9;
	449	1	0	0	0	29.42	0	1.0217406	-8.33390937	380	5	1.1	0.9;
	453	2	0	0	0	0	0	1.018914	-7.76193484	380	5	1.1	0.9;
	455	1	274.32	5.66	0	13.24	0	1.0462019	-30.7600101	220	5	1.1	0.9;
	490	1	20.52	4	0	2.77	0	1.03645157	-22.8893953	220	5	1.1	0.9;
	500	1	144.4	35.5	0	7.66	0	1.04042359	-14.9699491	220	5	1.1	0.9;
	502	1	-0	0	0	1.96	0	1.04356437	-6.65077362	220	5	1.1	0.9;
	506	1	-0	0	0	0.4	0	1.06329636	-9.07851749	380	5	1.1	0.9;
	513	1	57.46	17.1	0	1.61	0	1.03848272	-7.41572383	220	5	1.1	0.9;
	516	2	0	0	0	0	0	1.075592	-33.2733136	220	5	1.1	0.9;
	520	1	118.5	20.4	0	2.57	0	1.04823882	-27.0406843	220	5	1.1	0.9;
	549	1	0	-0	0	5.15	0	1.07567331	-10.5736633	220	5	1.1	0.9;
	554	1	0	-0	0	1.97	0	1.02408568	-20.6965706	220	5	1.1	0.9;
	556	1	16.52	9	0	1.17	0	1.03693978	-22.6380341	220	5	1.1	0.9;
	561	1	0	-0	0	0.32	0	1.05544865	-11.1239649	220	5	1.1	0.9;
	564	2	0	0	0	0	0	1.069817	-47.0894183	220	5	1.1	0.9;
	575	1	0	-0	0	0.67	0	1.04439234	-11.3174336	220	5	1.1	0.9;
	583	2	0	0	0	0	0	1.045397	-15.4951968	220	5	1.1	0.9;
	594	1	67.57	17	0	5.75	0	1.03668411	-8.71351965	220	5	1.1	0.9;
	601	1	140.6	42.6	0	5.71	0	1.04068801	-14.3484274	220	5	1.1	0.9;
	604	1	33.24	4.4	0	24.54	0	0.996941052	-12.8254224	380	5	1.1	0.9;
	608	1	150.9	10.4	0	4.77	0	1.07175375	-32.5911572	220	5	1.1	0.9;
	609	1	-0	-0	0	5.67	0	1.02534521	-14.7071339	220	5	1.1	0.9;
	615	2	0	0	0	0	0	1.063876	-10.5530435	220	5	1.1	0.9;
	616	2	0	0	0	0	0	1.048713	-12.9270574	220	5	1.1	0.9;
	619	1	72.88	14.4	0	2.96	0	1.0467553	-25.1513656	220	5	1.1	0.9;
	639	2	0	0	0	0	0	1.051376	-30.2722586	220	5	1.1	0.9;
	641	1	45.32	18.5	0	0.74	0	1.03515015	-13.837655	220	5	1.1	0.9;
	658	1	258.4	66.7	0	5.87	0	1.03398224	-17.4004782	220	5	1.1	0.9;
	661	1	-0	-0	0	0.6	0	1.04002194	2.47192363	380	5	1.1	0.9;
	666	1	-5.61	-2.79	0	150.93	0	1.03076601	-5.33805458	380	5	1.1	0.9;
	678	1	232.1	89.8	0	0.09	0	0.986375398	-18.299315	220	5	1.1	0.9;
	682	2	0	0	0	0	0	1.0691	-9.77794017	220	5	1.1	0.9;
	687	1	-0	0	0	5.6	0	1.05781682	-3.51528954	220	5	1.1	0.9;
	707	1	83.99	21.2	0	5.36	0	1.05453638	-25.5008064	220	5	1.1	0.9;
	718	1	135.11	41	0	5.31	0	1.03115327	-24.8224073	220	5	1.1	0.9;
	720	1	-0	-0	0	23.554121	0	0.982112975	-27.0912163	380	5	1.1	0.9;
	726	1	400.3	189.9	0	0.53	0	1.04846925	-4.37946929	220	5	1.1	0.9;
	742	1	0	-0	0	2.83	0	1.05798656	-3.51679775	220	5	1.1	0.9;
	747	1	69.58	16	0	3.03	0	1.07389045	-26.2481309	220	5	1.1	0.9;
	749	2	0	0	0	0	0	1.057884	-28.8796681	220	5	1.1	0.9;
	750	1	-0	-0	0	18.63	0	1.04114095	-24.3355065	220	5	1.1	0.9;
	757	2	0	0	0	0	0	1.017567	-13.6687916	380	5	1.1	0.9;
	766	1	-0	0	0	7.85	0	1.05023212	-20.7837623	220	5	1.1	0.9;
	769	1	152.57	40	0	6.12	0	1.02402604	-10.5565417	220	5	1.1	0.9;
	772	1	343.9	141.9	0	5.55	0	1.03436232	-14.0952285	220	5	1.1	0.9;
	776	2	0	0	0	0	0	1.026368	-13.2988565	220	5	1.1	0.9;
	778	2	0	0	0	0	0	1.049411	-6.61000305	220	5	1.1	0.9;
	789	1	-0	-0	0	6.63	0	1.0516897	-5.88269354	220	5	1.1	0.9;
	795	2	0	0	0	0	0	1.035522	-15.3633383	220	5	1.1	0.9;
	800	1	50.56	18	0	0.11	0	1.03516186	-12.3053415	220	5	1.1	0.9;
	803	2	0	0	0	0	0	1.041369	-24.7061936	220	5	1.1	0.9;
	804	1	-0	-0	0	7.26	0	1.05585939	-7.53804489	220	5	1.1	0.9;
	805	1	124.5	29.6	0	15.4	0	1.0567336	-11.0532469	220	5	1.1	0.9;
	809	1	0	-0	0	58.088687	0	1.02752457	0.212287815	380	5	1.1	0.9;
	819	1	0	-0	0	0.22	0	1.05216855	-0.689550651	220	5	1.1	0.9;
	823	2	0	0	0	0	0	1.044097	-2.07895952	380	5	1.1	0.9;
	839	1	-0	-0	0	8.17514	0	1.0244097	-1.10039391	380	5	1.1	0.9;
	851	2	0	0	0	0	0	1.00025	-17.0762409	220	5	1.1	0.9;
	858	2	0	0	0	0	0	1.031745	1.39152154	380	5	1.1	0.9;
	870	1	110	3.4	0	11.95	0	1.04076141	-24.4927603	220	5	1.1	0.9;
	871	1	108.89	-21.76	0	3.72	0	1.05693501	-12.0088064	220	5	1.1	0.9;
	883	1	192.5	78.3	0	6.65	0	1.0171894	-10.0952528	220	5	1.1	0.9;
	891	2	0	0	0	0	0	1.064525	-18.8562056	380	5	1.1	0.9;
	892	1	-0	-0	0	9.1	0	1.06919912	-34.8177765	220	5	1.1	0.9;
	900	1	0	0	0	0.15	0	1.05024718	-15.4903378	220	5	1.1	0.9;
	903	1	82.69	20.1	0	1.36	0	1.07385255	-26.2732753	220	5	1.1	0.9;
	905	1	631.71	-54.16	0	7.534129	0	1.03564291	-15.0029751	380	5	1.1	0.9;
	907	1	-0	-0	0	0.05	0	1.0385547	-9.7311022	220	5	1.1	0.9;
	908	1	125.9	-0.5	0	0.21	0	1.06521441	-8.00976999	220	5	1.1	0.9;
	920	1	34.44	8.5	0	1.11	0	1.04553944	-20.6607215	220	5	1.1	0.9;
	923	1	62.07	14.7	0	4.84	0	1.03559622	-22.9652878	220	5	1.1	0.9;
	933	1	-0	0	0	22.75	0	1.01994733	-21.4541959	220	5	1.1	0.9;
	935	1	-0	0	0	9.46	0	1.04919583	-24.3694178	220	5	1.1	0.9;
	953	1	108.7	-12.15	0	37.11	0	1.06601679	-12.8045633	380	5	1.1	0.9;
	954	1	66.27	13.6	0	0.67	0	1.0443282	-21.4281383	220	5	1.1	0.9;
	960	1	-0	-0	0	108.728602	0	1.06329504	-9.07851291	380	5	1.1	0.9;
	964	1	88.5	16.5	0	146.44	0	1.0155664	-11.5684384	380	5	1.1	0.9;
	972	2	0	0	0	0	0	1.072621	5.42982204	380	5	1.3	0.7;
	980	1	14.71	4.6	0	7.88	0	1.04717702	-25.0375755	220	5	1.1	0.9;
	1001	2	0	0	0	0	0	1.074143	-33.4417892	220	5	1.1	0.9;
	1002	2	0	0	0	0	0	1.041506	-19.9763713	220	5	1.1	0.9;
	1005	1	0	0	0	0.81	0	1.05395532	-12.3236806	220	5	1.1	0.9;
	1015	1	44.55	0	0	4.78	0	1.05627758	-5.32639606	220	5	1.1	0.9;
	1026	1	201.4	53	0	9.67	0	1.02818223	-29.2775607	220	5	1.1	0.9;
	1027	1	-5.91	-2.33	0	30.393595	0	0.99052149	-18.0494853	380	5	1.1	0.9;
	1033	1	26.33	5.3	0	4.31	0	1.04093388	-24.4126146	220	5	1.1	0.9;
	1035	1	382.5	57.9	0	8.16	0	1.06768581	-32.3969943	220	5	1.1	0.9;
	1039	1	34.64	-0	0	0.91	0	1.0344412	-19.471078	220	5	1.1	0.9;
	1040	1	31.94	8.8	0	3.79	0	1.03891314	-8.99113369	220	5	1.1	0.9;
	1043	2	0	0	0	0	0	1.028946	-3.64603295	380	5	1.1	0.9;
	1051	1	-0	0	0	3.79	0	1.04162736	-12.7720764	220	5	1.1	0.9;
	1077	1	-0	0	0	0.1	0	1.03558932	-12.2714325	220	5	1.1	0.9;
	1078	1	-0	-0	0	4.74	0	1.06150956	-3.40114379	220	5	1.1	0.9;
	1081	1	277.86	58.95	0	182.880644	0	1.03864194	-10.4462779	380	5	1.1	0.9;
	1083	2	0	0	0	0	0	1.049472	-8.54040256	220	5	1.1	0.9;
	1090	1	56.06	18.7	0	4.24	0	1.01006622	-21.5577837	220	5	1.1	0.9;
	1093	2	0	0	0	0	0	1.027056	-8.42023542	380	5	1.1	0.9;
	1096	1	0	-0	0	0.16	0	1.05018878	-1.08600404	220	5	1.1	0.9;
	1100	2	0	0	0	0	0	1.042801	-4.31410085	220	5	1.1	0.9;
	1101	1	-0	-0	0	2.05	0	1.03350878	-14.1367262	220	5	1.1	0.9;
	1102	2	0	0	0	0	0	1.049879	-6.48582117	220	5	1.1	0.9;
	1105	1	29.83	7.3	0	6.49	0	1.07472727	-26.1935013	220	5	1.1	0.9;
	1111	1	0	0	0	1.1	0	1.03682439	-8.7154302	220	5	1.1	0.9;
	1129	1	190.47	55.03	0	6.7	0	1.00329118	-22.3982282	220	5	1.1	0.9;
	1136	1	16.22	2	0	0.71	0	1.03480009	-18.4425658	220	5	1.1	0.9;
	1137	1	-0	-0	0	0.05	0	1.04867977	-24.3273265	220	5	1.1	0.9;
	1146	1	32.84	-0	0	1.41	0	1.03263869	-5.5575706	220	5	1.1	0.9;
	1151	1	-0	-0	0	18.82	0	1.04335613	-20.4975441	220	5	1.1	0.9;
	1153	1	12.41	3.9	0	2.23	0	1.03460067	-5.61447569	220	5	1.1	0.9;
	1156	1	65.67	24	0	9.95	0	1.03805203	-22.3772562	220	5	1.1	0.9;
	1159	1	112.4	13	0	3.99	0	1.05263057	-36.0114098	220	5	1.1	0.9;
	1172	1	-0	-0	0	2.3	0	1.07443627	-25.424779	220	5	1.1	0.9;
	1179	1	86.6	23.4	0	0.39	0	1.04089861	-2.74278789	220	5	1.1	0.9;
	1183	1	199.4	-19.9	0	6.68	0	1.06675736	-32.76889	220	5	1.1	0.9;
	1187	1	67.57	21.2	0	5.71	0	1.03985774	-4.88492797	220	5	1.1	0.9;
	1188	1	30.93	6.6	0	9.09	0	1.05449942	-14.1689079	220	5	1.1	0.9;
	1194	1	129.6	13.3	0	13.98	0	1.03898273	-15.0257069	380	5	1.1	0.9;
	1198	1	0	0	0	30.637696	0	0.98795584	-14.5149575	380	5	1.1	0.9;
	1201	1	114.1	23.5	0	1.08	0	1.05030811	-19.5909606	220	5	1.1	0.9;
	1216	1	0	0	0	4.93	0	1.04061421	-10.7139573	220	5	1.1	0.9;
	1233	1	0	-0	0	1.72	0	1.03797774	-22.4020887	220	5	1.1	0.9;
	1234	1	71.78	17.9	0	1.96	0	1.02264109	-16.4420867	220	5	1.1	0.9;
	1237	2	0	0	0	0	0	1.108028	-6.07117083	380	5	1.3	0.7;
	1248	1	0	0	0	1.17	0	1.04721016	-10.595301	220	5	1.1	0.9;
	1249	1	348.93	26.47	0	9.36	0	1.01941879	-11.2031795	380	5	1.1	0.9;
	1251	2	0	0	0	0	0	1.027102	-8.42971313	380	5	1.1	0.9;
	1262	1	-0	0	0	10.73	0	1.03860445	-21.9094403	220	5	1.1	0.9;
	1265	1	173	-21.3	0	5.93	0	1.06651847	-49.9557258	220	5	1.1	0.9;
	1275	1	52.46	2.9	0	0.35	0	1.0326654	-18.7622238	220	5	1.1	0.9;
	1295	2	0	0	0	0	0	1.03682	-8.57254509	220	5	1.1	0.9;
	1301	1	479	99.2	0	10.68	0	1.05179578	-28.5472238	220	5	1.1	0.9;
	1305	1	-0	-0	0	4.34	0	1.03825085	-22.2151551	220	5	1.1	0.9;
	1311	1	37.94	15.2	0	35.31	0	1.03391207	-21.5031483	380	5	1.1	0.9;
	1326	1	0	0	0	0.98	0	1.06934878	-34.8187711	220	5	1.1	0.9;
	1334	1	0	0	0	0.59	0	1.02520167	-16.2311811	220	5	1.1	0.9;
	1341	2	0	0	0	0	0	1.032899	-14.1325763	220	5	1.1	0.9;
	1343	1	-0	-0	0	58.3	0	0.996374588	-14.086235	380	5	1.1	0.9;
	1354	2	0	0	0	0	0	1.041045	-7.3492231	220	5	1.1	0.9;
	1355	1	-3.29	-1.32	0	190.704588	0	1.03280497	-8.49870455	380	5	1.1	0.9;
	1364	1	40.85	14.5	0	0.59	0	1.03985875	-12.012333	220	5	1.1	0.9;
	1380	1	145.2	21.4	0	1.09	0	1.0336671	-22.5366566	220	5	1.1	0.9;
	1394	1	30.93	7.6	0	4.69	0	1.07462748	-26.1818141	220	5	1.1	0.9;
	1397	1	0	-0	0	2.14	0	1.03792416	-12.7639525	220	5	1.1	0.9;
	1398	1	196.7	44.2	0	0.1	0	1.01732322	-18.9291864	220	5	1.1	0.9;
	1401	1	11.91	2.9	0	5.27	0	1.03865087	-14.6754258	220	5	1.1	0.9;
	1414	1	144.7	20.3	0	6.35	0	1.02268233	-27.764665	220	5	1.1	0.9;
	1415	1	0	-0	0	0.3	0	1.03214378	-11.4213697	220	5	1.1	0.9;
	1422	2	0	0	0	0	0	1.04353	-20.8946969	220	5	1.1	0.9;
	1435	1	-0	0	0	3.85	0	1.04468258	-24.1933165	220	5	1.1	0.9;
	1436	2	0	0	0	0	0	1.047684	-12.8605956	220	5	1.1	0.9;
	1448	1	0	0	0	9.49	0	1.07508098	-15.1598219	220	5	1.1	0.9;
	1459	1	-0	-0	0	3.38	0	1.04293814	-21.7200778	220	5	1.1	0.9;
	1462	1	-0	0	0	0.42	0	1.04355165	-20.8952071	220	5	1.1	0.9;
	1465	1	-11.03	-5.11	0	29.706803	0	0.988439378	-15.2126856	380	5	1.1	0.9;
	1478	2	0	0	0	0	0	1.048068	-15.7562747	220	5	1.1	0.9;
	1483	1	0	0	0	4.86	0	1.06563388	-25.6518187	220	5	1.1	0.9;
	1486	1	79.59	18.8	0	6.78	0	1.03495426	-23.217957	220	5	1.1	0.9;
	1494	1	-1.85	-1.63	0	31.424588	0	1.03425526	-11.4482753	380	5	1.1	0.9;
	1502	1	-0	0	0	37.116157	0	1.02795237	-26.5170238	380	5	1.1	0.9;
	1504	1	0	-0	0	1.84	0	1.02536674	-14.2613802	220	5	1.1	0.9;
	1526	1	-10.86	-5.93	0	12.54	0	1.04297007	-12.0119612	220	5	1.1	0.9;
	1538	1	36.34	15.2	0	0.3	0	1.03522184	-9.87008618	220	5	1.1	0.9;
	1539	1	73.58	3.24	0	52.35	0	1.05939635	-15.2445238	220	5	1.1	0.9;
	1541	1	125.4	45.8	0	0	0	1.03928202	-17.9743588	220	5	1.1	0.9;
	1545	1	42.55	8.2	0	2.06	0	1.04220492	-23.3446602	220	5	1.1	0.9;
	1547	1	-0	-0	0	1.02	0	1.04048155	-14.9704926	220	5	1.1	0.9;
	1551	1	-0	-0	0	7.99	0	1.04314029	-20.2905832	220	5	1.1	0.9;
	1552	1	20.42	8.1	0	35.15	0	1.04264483	-16.5144421	380	5	1.1	0.9;
	1554	1	0	-0	0	4.96	0	1.02077178	-15.9774551	220	5	1.1	0.9;
	1556	1	-0	-0	0	0.95	0	1.0617955	-11.3374441	220	5	1.1	0.9;
	1562	1	77.39	24.1	0	2.67	0	1.04224988	-25.7536385	220	5	1.1	0.9;
	1566	1	156.9	-4	0	2.48	0	1.03620054	-24.6284432	220	5	1.1	0.9;
	1568	1	69.08	21.5	0	1.65	0	1.04687103	-25.0538453	220	5	1.1	0.9;
	1578	1	0	-0	0	1.38	0	1.0404509	-12.1739053	220	5	1.1	0.9;
	1584	1	0	-0	0	3.24	0	1.02687047	-14.1829278	220	5	1.1	0.9;
	1592	1	28.33	44.8	0	0.51	0	1.03747317	-1.78771217	220	5	1.1	0.9;
	1595	1	71.77	13.57	0	3.84	0	1.01583918	-29.1526305	220	5	1.1	0.9;
	1604	2	0	0	0	0	0	1.043862	-6.61546996	220	5	1.1	0.9;
	1605	1	-0	0	0	0.05	0	1.07705448	-24.2032631	220	5	1.1	0.9;
	1607	1	73.78	-0	0	2.69	0	1.03067654	-5.43826769	380	5	1.1	0.9;
	1609	1	0	0	0	6.55	0	1.05016365	-20.5786485	220	5	1.1	0.9;
	1625	1	73.18	22.3	0	8.77	0	1.05010763	-20.7820979	220	5	1.1	0.9;
	1629	1	41.95	8.5	0	1.05	0	1.04367601	-11.0545675	220	5	1.1	0.9;
	1642	2	0	0	0	0	0	1.028554	0.709135059	380	5	1.1	0.9;
	1643	1	95.71	25.9	0	11.38	0	1.04229011	-25.7870919	220	5	1.1	0.9;
	1644	1	449.56	245.72	0	94.55	0	1.05447301	3.49946846	380	5	1.1	0.9;
	1662	1	3.67	-1.86	0	3.89	0	1.04623046	-20.6927408	220	5	1.1	0.9;
	1672	1	-28.13	-0.83	0	0.1	0	1.06182095	-11.3507719	220	5	1.1	0.9;
	1680	2	0	0	0	0	0	1.04395	-2.0748729	380	5	1.1	0.9;
	1692	1	83.19	25.8	0	0.33	0	1.04724387	-10.555193	220	5	1.1	0.9;
	1704	1	62.16	8	0	2.99	0	1.0389235	-13.0402226	220	5	1.1	0.9;
	1708	2	0	0	0	0	0	1.037938	-13.0889944	380	5	1.1	0.9;
	1709	1	-15.38	-4.94	0	33.241519	0	1.00747164	-14.64924	380	5	1.1	0.9;
	1711	1	25.13	-61.6	0	3.68	0	1.0527461	-30.0532624	220	5	1.1	0.9;
	1721	2	0	0	0	0	0	1.062238	2.49542531	220	5	1.1	0.9;
	1730	1	-17.18	-4.35	0	44.419365	0	1.02581876	-14.328572	380	5	1.1	0.9;
	1742	1	0	0	0	6.68	0	1.0309777	-31.8728128	220	5	1.1	0.9;
	1746	1	-0	0	0	1.86	0	1.04936751	-23.9884782	220	5	1.1	0.9;
	1750	1	58.46	6.6	0	10.13	0	1.03657724	-19.0771677	220	5	1.1	0.9;
	1754	2	0	0	0	0	0	1.04286	-17.2140931	380	5	1.1	0.9;
	1758	1	0	-0	0	121.29	0	1.034643	-4.27700429	380	5	1.1	0.9;
	1763	1	-0	-0	0	0.28	0	1.03483405	-30.648396	380	5	1.1	0.9;
	1767	1	333.5	-1.4	0	8.37	0	1.0494206	-45.4208474	220	5	1.1	0.9;
	1768	1	73.98	22.5	0	1.15	0	1.04293275	-11.0589495	220	5	1.1	0.9;
	1775	1	-0	0	0	1.64	0	1.05106	-25.9051326	220	5	1.1	0.9;
	1794	2	0	0	0	0	0	1.05295	-0.0895246588	380	5	1.1	0.9;
	1798	1	-0.63	-0.83	0	22.810288	0	0.9873632	-7.3520663	380	5	1.1	0.9;
	1803	1	-0	-0	0	0.05	0	1.03887986	-21.911475	220	5	1.1	0.9;
	1808	2	0	0	0	0	0	1.046224	-0.805034883	220	5	1.1	0.9;
	1813	1	88.92	19.79	0	2.81	0	1.02916562	-7.48274778	220	5	1.1	0.9;
	1817	1	108.91	33.7	0	56.24	0	1.0695894	-12.3564708	380	5	1.1	0.9;
	1833	1	0	0	0	3.33	0	1.03636068	-22.3496604	220	5	1.1	0.9;
	1838	1	0	-0	0	3.02	0	1.03740689	-22.0323508	220	5	1.1	0.9;
	1844	1	-28.14	-0.76	0	0.1	0	1.06183918	-11.3502182	220	5	1.1	0.9;
	1851	2	0	0	0	0	0	1.04762	-12.8701111	220	5	1.1	0.9;
	1852	2	0	0	0	0	0	1.054325	-25.6529896	220	5	1.1	0.9;
	1857	1	0	0	0	1.53	0	1.02860844	-10.9994328	220	5	1.1	0.9;
	1860	1	88.8	-3.2	0	13.63	0	1.06085823	-25.454139	220	5	1.1	0.9;
	1866	1	209.2	23.5	0	6.44	0	1.04508244	-28.0334681	220	5	1.1	0.9;
	1868	1	11.71	3.8	0	2.96	0	1.03525685	-15.7566173	220	5	1.1	0.9;
	1876	1	-0	-0	0	6.273568	0	1.03079814	-14.1455441	380	5	1.1	0.9;
	1883	1	27.33	5	0	6.77	0	1.02979648	-16.3453145	220	5	1.1	0.9;
	1888	2	0	0	0	0	0	1.039377	-1.75093415	220	5	1.1	0.9;
	1895	1	20.82	-0	0	0.14	0	1.07035451	7.60638335	220	5	1.1	0.9;
	1896	1	-0	-0	0	1.18	0	1.0220226	-5.9652415	380	5	1.1	0.9;
	1910	1	-0	0	0	2.68	0	1.04924309	-6.6244337	220	5	1.1	0.9;
	1914	2	0	0	0	0	0	1.035636	-20.5618163	220	5	1.1	0.9;
	1917	1	197.5	-31	0	17.34	0	1.05049924	-25.0320997	220	5	1.1	0.9;
	1923	1	192.11	45.5	0	68.04	0	1.00237754	-11.5079129	380	5	1.1	0.9;
	1940	1	0	0	0	1.19	0	1.03615416	-17.9485468	220	5	1.1	0.9;
	1959	2	0	0	0	0	0	1.064692	-10.4568404	220	5	1.1	0.9;
	1965	1	248.7	8.1	0	12.46	0	1.06638152	-49.6110477	220	5	1.1	0.9;
	1973	1	210.1	66.2	0	59.36	0	1.07470944	-26.1677809	220	5	1.1	0.9;
	1979	1	0	0	0	0.14	0	1.07414443	-33.441794	220	5	1.1	0.9;
	1980	1	177.3	36.4	0	0.7	0	1.04098535	-21.3125452	220	5	1.1	0.9;
	1998	1	25.73	7.3	0	2.82	0	1.03329399	-20.0272032	220	5	1.1	0.9;
	2012	1	41.45	4.9	0	18.43	0	1.03850509	-18.5616661	220	5	1.1	0.9;
	2019	1	72.08	21.3	0	7.19	0	1.0445309	-20.9697142	220	5	1.1	0.9;
	2020	1	0	0	0	9.98	0	1.05108684	-23.9958492	220	5	1.1	0.9;
	2021	1	3.9	1	0	3.81	0	1.05010982	-24.8648166	220	5	1.1	0.9;
	2035	2	0	0	0	0	0	1.03088	0.970683831	380	5	1.1	0.9;
	2042	1	14.02	6.5	0	0.09	0	1.03868692	-4.97379099	220	5	1.1	0.9;
	2043	1	3.2	1.7	0	0.05	0	1.04351623	-20.8956706	220	5	1.1	0.9;
	2044	1	0	0	0	0.14	0	1.03213894	-12.3728741	220	5	1.1	0.9;
	2050	2	0	0	0	0	0	1.009914	-1.09092087	380	5	1.1	0.9;
	2056	1	-0	0	0	7.338808	0	1.03822283	-9.2066072	380	5	1.1	0.9;
	2057	1	120.2	20.5	0	19.94	0	1.04974328	-31.0549431	220	5	1.1	0.9;
	2072	1	101.2	2.1	0	38.43	0	1.06577047	-17.3371371	380	5	1.1	0.9;
	2078	1	77.19	18.6	0	2.22	0	1.02067422	-14.6691037	220	5	1.1	0.9;
	2079	1	0	-0	0	13.94	0	1.05027298	-12.0559285	220	5	1.1	0.9;
	2083	1	121.4	20.2	0	16.61	0	1.03501363	-18.3864664	220	5	1.1	0.9;
	2085	2	0	0	0	0	0	1.040351	2.52446407	380	5	1.1	0.9;
	2088	1	-0	0	0	6.02	0	1.05217903	-11.9778232	220	5	1.1	0.9;
	2089	1	199.86	56.93	0	46.83	0	1.04313357	-25.6696707	220	5	1.1	0.9;
	2093	1	-5.64	-2.84	0	34.582195	0	1.01667451	-8.01086005	380	5	1.1	0.9;
	2101	1	-0	-0	0	38.32	0	1.02999907	-5.50097098	380	5	1.1	0.9;
	2128	1	79.09	18.7	0	10.8	0	1.03596132	-22.9376908	220	5	1.1	0.9;
	2129	1	0	0	0	56.686515	0	1.01652381	-8.147485	380	5	1.1	0.9;
	2132	1	107.3	14.2	0	20.23	0	1.03967055	-15.7070883	220	5	1.1	0.9;
	2142	1	0	-0	0	7.63	0	1.05040085	-7.87405649	220	5	1.1	0.9;
	2155	1	63.67	20.2	0	6.13	0	1.03879611	-4.96393537	220	5	1.1	0.9;
	2161	1	35.66	-9.39	0	7.89	0	1.04839443	-28.5042233	220	5	1.1	0.9;
	2166	1	20.92	7.7	0	1.21	0	1.05288691	-14.6005803	220	5	1.1	0.9;
	2174	1	0	0	0	61.795782	0	1.01195802	-13.1101825	380	5	1.1	0.9;
	2177	2	0	0	0	0	0	1.07333	-28.3436011	220	5	1.1	0.9;
	2183	1	0	0	0	32.849821	0	0.995872472	-16.0676086	380	5	1.1	0.9;
	2189	1	-0	0	0	0.18	0	1.04776089	-6.21139792	220	5	1.1	0.9;
	2197	2	0	0	0	0	0	1.035528	-5.97295652	380	5	1.1	0.9;
	2208	1	74.98	26.9	0	2.96	0	1.05111309	-13.4991345	220	5	1.1	0.9;
	2229	1	0	-0	0	2.91	0	1.06295935	-13.0081193	220	5	1.1	0.9;
	2230	1	0	-0	0	1.71	0	1.03650276	-22.3508908	220	5	1.1	0.9;
	2231	1	0	0	0	0.45	0	1.04939141	1.19552287	220	5	1.1	0.9;
	2242	1	-0	-0	0	2.76	0	1.02489876	-18.9262277	220	5	1.1	0.9;
	2252	1	100.7	-4.2	0	1.57	0	1.0680232	-47.9289639	220	5	1.1	0.9;
	2273	1	141.3	32.4	0	7.29	0	1.07432734	-26.2069598	220	5	1.1	0.9;
	2276	2	0	0	0	0	0	1.05324	-23.689983	220	5	1.1	0.9;
	2286	1	208.88	60.8	0	6.68	0	1.02320161	-8.30179048	220	5	1.1	0.9;
	2288	1	170.9	39	0	11.25	0	1.03447742	-8.53843546	220	5	1.1	0.9;
	2291	2	0	0	0	0	0	1.072528	-10.3146607	220	5	1.1	0.9;
	2303	1	0	-0	0	7.94	0	1.03744304	-15.7765378	220	5	1.1	0.9;
	2304	1	88.7	-0.1	0	2.83	0	1.05848407	-25.7153527	220	5	1.1	0.9;
	2308	1	32.04	6.6	0	0.44	0	1.03859401	-23.9503221	220	5	1.1	0.9;
	2313	1	0	-0	0	0.41	0	1.04665848	-21.1678783	220	5	1.1	0.9;
	2319	1	39.64	20.9	0	0.65	0	1.06106878	-9.05545272	220	5	1.1	0.9;
	2327	1	114.5	25.2	0	17.57	0	1.04720768	-25.0329572	220	5	1.1	0.9;
	2328	1	-0	0	0	0.4	0	1.01751936	-14.1767633	220	5	1.1	0.9;
	2337	1	103.4	27	0	1.41	0	1.04560255	-29.6094527	220	5	1.1	0.9;
	2340	1	96.91	13.9	0	3.98	0	1.03961415	-12.3702168	220	5	1.1	0.9;
	2341	1	-0	0	0	3.28	0	1.0651094	-25.9722198	220	5	1.1	0.9;
	2359	2	0	0	0	0	0	1.024884	-9.86717245	380	5	1.1	0.9;
	2360	1	215.5	31.3	0	14.23	0	1.04456924	-21.0473954	220	5	1.1	0.9;
	2361	1	16.9	3.85	0	25.09	0	1.05254126	-29.3330472	220	5	1.1	0.9;
	2365	1	37.94	15.4	0	117.386167	0	1.0335597	-22.0109677	380	5	1.1	0.9;
	2372	1	0	-0	0	14.490904	0	0.991245234	-17.3482776	380	5	1.1	0.9;
	2377	1	101.7	17.6	0	13.14	0	1.036663	-14.8175813	220	5	1.1	0.9;
	2393	1	20.82	0	0	0.13	0	1.07049586	7.71803374	220	5	1.1	0.9;
	2406	1	0	0	0	1.69	0	1.04867951	-24.3273238	220	5	1.1	0.9;
	2421	2	0	0	0	0	0	1.047766	-23.570772	220	5	1.1	0.9;
	2424	1	44.55	16.8	0	2.31	0	1.03497622	-22.290912	220	5	1.1	0.9;
	2425	2	0	0	0	0	0	1.041186	-9.73504566	220	5	1.1	0.9;
	2426	2	0	0	0	0	0	1.037687	-13.6440147	220	5	1.1	0.9;
	2430	1	-0	0	0	6.21	0	1.04137697	-11.8415034	220	5	1.1	0.9;
	2432	1	291.2	35.4	0	21.87	0	1.03101989	-31.7869964	220	5	1.1	0.9;
	2438	1	-0	0	0	0.64	0	1.04663012	-21.1675773	220	5	1.1	0.9;
	2446	2	0	0	0	0	0	1.06157	7.61497374	380	5	1.1	0.9;
	2457	1	30.73	9.6	0	2.75	0	1.04005922	-24.509933	220	5	1.1	0.9;
	2458	1	132	26	0	27.18	0	1.00651964	-13.3131742	380	5	1.1	0.9;
	2467	1	0	-0	0	11.65	0	1.01813138	-14.0271457	220	5	1.1	0.9;
	2468	2	0	0	0	0	0	1.048132	-6.14420064	220	5	1.1	0.9;
	2475	1	0	0	0	0.21	0	1.06557378	-7.88887676	220	5	1.1	0.9;
	2479	1	-2.65	-1.17	0	65.673108	0	1.0081687	-2.5734265	380	5	1.1	0.9;
	2481	2	0	0	0	0	0	1.042777	-18.1132843	220	5	1.1	0.9;
	2489	2	0	0	0	0	0	1.049366	1.19583511	220	5	1.1	0.9;
	2503	1	-0	0	0	2.09	0	1.01282287	-21.3469343	220	5	1.1	0.9;
	2510	1	115.87	29.41	0	7.92	0	1.02848838	-11.9998802	220	5	1.1	0.9;
	2518	1	-5.29	-1.91	0	42.622979	0	0.999103904	-11.4702857	380	5	1.1	0.9;
	2526	1	238.45	46.86	0	125.534496	0	1.04463409	-19.5879364	380	5	1.1	0.9;
	2527	1	59.77	16.7	0	0.64	0	1.04398892	-4.56413454	220	5	1.1	0.9;
	2535	1	51.56	2.1	0	0.18	0	1.03763001	-2.27147773	220	5	1.1	0.9;
	2550	2	0	0	0	0	0	1.049384	-6.59573167	220	5	1.1	0.9;
	2558	1	159.27	38.31	0	2.18	0	1.0233331	-16.5655859	220	5	1.1	0.9;
	2563	1	52.86	13	0	6.04	0	1.04697856	-4.635122	220	5	1.1	0.9;
	2575	1	62.97	17.4	0	0.3	0	1.04159302	-2.6651323	220	5	1.1	0.9;
	2591	1	253.77	84.6	0	20.71	0	1.03096572	-15.1684229	220	5	1.1	0.9;
	2597	1	14.72	5.4	0	0.72	0	1.03311149	-10.835618	220	5	1.1	0.9;
	2598	1	25.63	12.7	0	8.42	0	1.04050992	-15.2135078	220	5	1.1	0.9;
	2600	2	0	0	0	0	0	1.038821	-13.5244508	220	5	1.1	0.9;
	2627	2	0	0	0	0	0	1.061488	7.57869156	380	5	1.1	0.9;
	2629	1	203.1	65.2	0	0.64	0	1.04551166	-24.3912683	220	5	1.1	0.9;
	2641	1	0	0	0	1.72	0	1.04212664	-11.2491971	220	5	1.1	0.9;
	2644	1	0	0	0	0.19	0	1.07365865	-24.676062	220	5	1.1	0.9;
	2653	2	0	0	0	0	0	1.036517	-22.8828834	220	5	1.1	0.9;
	2654	1	207.1	50.4	0	4.93	0	1.01922849	-18.6959789	220	5	1.1	0.9;
	2656	1	-0.72	0	0	69.582294	0	1.0343085	-22.6816287	380	5	1.1	0.9;
	2676	1	123.24	23.65	0	6.44	0	1.03570215	-14.886668	220	5	1.1	0.9;
	2689	1	0	0	0	0.45	0	1.03408674	-2.58850541	220	5	1.1	0.9;
	2695	1	16.22	8.9	0	2.2	0	1.03834541	-20.8947162	220	5	1.1	0.9;
	2702	1	151.7	27.6	0	6.49	0	1.04323578	-25.5086072	220	5	1.1	0.9;
	2719	2	0	0	0	0	0	1.035384	-15.3742764	220	5	1.1	0.9;
	2721	1	-0	0	0	10.040547	0	0.984016963	-22.7553996	380	5	1.1	0.9;
	2732	1	85.59	20.72	0	142.79	0	1.013065	-9.97278443	380	5	1.1	0.9;
	2749	1	55.56	26.5	0	1.09	0	1.04992448	-30.3975072	220	5	1.1	0.9;
	2751	1	34.54	8.6	0	5.05	0	1.04216542	-21.7990397	220	5	1.1	0.9;
	2754	1	-0	0	0	3.72	0	1.05199431	-13.2931876	220	5	1.1	0.9;
	2770	1	85.39	14.3	0	0.35	0	1.04803138	-9.93316507	220	5	1.1	0.9;
	2782	1	-28.13	-0.81	0	0.1	0	1.06183982	-11.349945	220	5	1.1	0.9;
	2786	2	0	0	0	0	0	1.073795	6.49935614	380	5	1.3	0.7;
	2794	1	0	-0	0	0.39	0	1.03501846	-18.3865062	220	5	1.1	0.9;
	2795	1	-0	-0	0	1.94	0	1.07029087	-32.1474728	220	5	1.1	0.9;
	2797	2	0	0	0	0	0	1.042226	-4.44915697	220	5	1.1	0.9;
	2799	2	0	0	0	0	0	1.05396	-12.2998384	220	5	1.1	0.9;
	2801	1	0	-0	0	12.17	0	1.04102239	-24.3935823	220	5	1.1	0.9;
	2806	1	-0	-0	0	0.39	0	1.05048876	0.197468076	220	5	1.1	0.9;
	2815	1	25.33	14.2	0	4.05	0	1.03655004	-22.8595453	220	5	1.1	0.9;
	2816	2	0	0	0	0	0	1.053944	-0.243601852	380	5	1.1	0.9;
	2841	2	0	0	0	0	0	1.08248	-26.1508504	220	5	1.1	0.9;
	2842	2	0	0	0	0	0	1.043712	-6.62545535	220	5	1.1	0.9;
	2847	1	40.14	8.8	0	0.82	0	1.05066296	-3.88350789	220	5	1.1	0.9;
	2848	1	453.23	139.16	0	25.583218	0	0.997929673	-7.74009194	380	5	1.1	0.9;
	2850	1	-0	-0	0	4.76	0	1.03308809	-18.647282	220	5	1.1	0.9;
	2854	1	-12.33	-2.65	0	69.323028	0	1.04483776	-10.6220384	380	5	1.1	0.9;
	2863	1	37.73	13.84	0	0.09	0	1.02840269	-11.0181755	220	5	1.1	0.9;
	2866	1	-0	0	0	4.21	0	1.03788329	-7.24275245	220	5	1.1	0.9;
	2872	2	0	0	0	0	0	1.063841	-10.6249855	220	5	1.1	0.9;
	2877	1	29.93	-0	0	0.46	0	1.04181048	-14.850097	220	5	1.1	0.9;
	2878	2	0	0	0	0	0	1.057626	-11.0173298	220	5	1.1	0.9;
	2886	2	0	0	0	0	0	1.055151	-14.0555237	220	5	1.1	0.9;
	2888	1	-0	0	0	0.22	0	1.01368911	-21.1232585	220	5	1.1	0.9;
	2889	1	-0	0	0	3.2	0	1.05018572	-1.08597562	220	5	1.1	0.9;
	2898	1	56.76	13.4	0	1.18	0	1.03584472	-22.9454709	220	5	1.1	0.9;
	2902	2	0	0	0	0	0	1.059072	-23.2044329	220	5	1.1	0.9;
	2910	1	-0	0	0	2.87	0	1.04051487	-1.71470968	220	5	1.1	0.9;
	2918	1	0	0	0	53.25003	0	1.02384718	-28.1268886	380	5	1.1	0.9;
	2919	1	-0	0	0	32.049116	0	0.99157538	-18.1817939	380	5	1.1	0.9;
	2924	1	19.92	7.4	0	17.28	0	1.05757298	-33.0300959	220	5	1.1	0.9;
	2928	1	0	-0	0	92.38	0	1.07453613	-26.2034489	220	5	1.1	0.9;
	2930	2	0	0	0	0	0	1.047695	-12.8553233	220	5	1.1	0.9;
	2931	1	230.7	19.3	0	4.56	0	1.04361454	-32.1191286	220	5	1.1	0.9;
	2934	2	0	0	0	0	0	1.051149	-6.45706425	220	5	1.1	0.9;
	2938	1	0	-0	0	137.29	0	1.00542127	-7.28851231	380	5	1.1	0.9;
	2940	1	103	28.7	0	2.88	0	1.01673557	-14.2776281	220	5	1.1	0.9;
	2949	1	-0	-0	0	11.03	0	1.0504429	-4.81656344	220	5	1.1	0.9;
	2961	1	159.9	53.2	0	7.99	0	1.04121453	-24.2784872	220	5	1.1	0.9;
	2967	1	0	-0	0	0.19	0	1.04697348	-17.0018824	220	5	1.1	0.9;
	2968	1	112.51	16.51	0	1.63	0	1.04452288	-8.80551524	220	5	1.1	0.9;
	2972	1	97.82	20.59	0	6.67	0	1.03834304	-14.9896707	220	5	1.1	0.9;
	2980	1	-0	0	0	0.42	0	1.06329682	-9.07852013	380	5	1.1	0.9;
	2981	1	-0	0	0	1.68	0	1.07543437	-15.1626624	220	5	1.1	0.9;
	2985	2	0	0	0	0	0	1.053607	-8.25921975	220	5	1.1	0.9;
	2995	1	0	-0	0	3.9	0	1.0518917	-3.69235098	220	5	1.1	0.9;
	3013	1	2.2	1.1	0	0.67	0	1.04957477	-5.21921246	220	5	1.1	0.9;
	3018	2	0	0	0	0	0	1.041705	-12.7419805	220	5	1.1	0.9;
	3019	1	0	-0	0	1.37	0	1.03683644	-22.638389	220	5	1.1	0.9;
	3021	1	74.38	8.8	0	6.1	0	1.04258561	-11.6331144	220	5	1.1	0.9;
	3022	1	149	19.8	0	23.89	0	1.03845699	-14.8223801	380	5	1.1	0.9;
	3028	2	0	0	0	0	0	1.030654	0.882391248	380	5	1.1	0.9;
	3036	1	116.93	33.6	0	3.35	0	1.04682137	-25.0750224	220	5	1.1	0.9;
	3037	1	221	146.8	0	8.35	0	1.04856966	-6.42986225	220	5	1.1	0.9;
	3044	1	29.33	5.6	0	6.56	0	1.04499732	-20.9767492	220	5	1.1	0.9;
	3051	1	0	0	0	0	0	1.03115327	-24.8224073	220	5	1.1	0.9;
	3069	1	89.6	22.7	0	4.06	0	1.03543155	-9.85351248	220	5	1.1	0.9;
	3070	1	0	-0	0	4.27	0	1.01368269	-21.1232131	220	5	1.1	0.9;
	3071	1	0	-0	0	2.83	0	1.04471581	-7.21311675	220	5	1.1	0.9;
	3072	1	92.9	27.7	0	5.22	0	1.05067541	-30.3698532	220	5	1.1	0.9;
	3075	1	30.33	10.5	0	0.33	0	1.02067546	-16.8158899	220	5	1.1	0.9;
	3082	1	0	0	0	75.076038	0	0.998950011	-15.0246414	380	5	1.1	0.9;
	3083	1	567.97	130.73	0	1.09	0	1.06838196	-27.4965033	220	5	1.1	0.9;
	3085	1	64.67	24.5	0	1.46	0	1.06721098	-27.5530608	220	5	1.1	0.9;
	3112	1	-0	0	0	0	0	1.05732831	2.42155498	220	5	1.1	0.9;
	3114	2	0	0	0	0	0	1.071964	-11.3480275	220	5	1.1	0.9;
	3121	1	242.16	73.64	0	12.79	0	1.03163724	-7.1938002	220	5	1.1	0.9;
	3126	1	104.78	20.92	0	6.17	0	1.02154977	-17.857469	220	5	1.1	0.9;
	3133	2	0	0	0	0	0	1.065372	-8.91533334	220	5	1.1	0.9;
	3134	2	0	0	0	0	0	1.023117	-15.6477133	220	5	1.1	0.9;
	3137	1	0	-0	0	0.03	0	1.06510952	-25.9722207	220	5	1.1	0.9;
	3145	1	860.95	-182.67	0	18.309116	0	0.993015377	-41.3627003	380	5	1.1	0.9;
	3166	1	184.91	32.8	0	8.35	0	1.03906473	-17.4733245	220	5	1.1	0.9;
	3183	2	0	0	0	0	0	1.055515	-11.7767785	220	5	1.1	0.9;
	3184	1	14.12	7.7	0	1.42	0	1.04030219	-21.2294867	220	5	1.1	0.9;
	3187	1	107	34.7	0	1.54	0	1.04240476	-12.880921	220	5	1.1	0.9;
	3191	1	127.8	15.2	0	9.34	0	1.04080964	-12.205191	220	5	1.1	0.9;
	3200	1	86.2	19.9	0	5.43	0	1.0361687	-22.9284181	220	5	1.1	0.9;
	3204	1	8.51	3.2	0	0.96	0	1.01703627	-10.2289163	220	5	1.1	0.9;
	3205	2	0	0	0	0	0	1.041982	-1.21935904	380	5	1.1	0.9;
	3218	2	0	0	0	0	0	1.028507	-11.1970458	220	5	1.1	0.9;
	3221	1	76.38	24.8	0	3.24	0	1.0477694	-12.0716815	220	5	1.1	0.9;