function mpc = case13659pegase_resqlim
%CASE13659PEGASE_RESQLIM

%% MATPOWER Case Format : Version 2
mpc.version = '2';

%%-----  Power Flow Data  -----%%
%% system MVA base
mpc.baseMVA = 100;

%% bus data
%	bus_i	type	Pd	Qd	Gs	Bs	area	Vm	Va	baseKV	zone	Vmax	Vmin
mpc.bus = [
	1	3	0	0	0	0	0	1.031695	0	20	6	1.1	0.9;
	2	1	72.68	45	0	6.61	0	1.00250062	-11.3082277	150	9	1.1	0.9;
	3	1	378.4	98.5	0	16.61	0	0.991896547	-10.2990043	220	6	1.1	0.9;
	4	1	134	19.1	0	0.08	0	1.00505655	9.39936791	154	1	1.1	0.9;
	5	1	151	48.8	0	4.69	0	0.9906553	5.42522747	220	5	1.1	0.9;
	6	1	171.41	23.4	0	2.1	0	1.00445873	21.0828401	220	5	1.1	0.9;
	7	1	45.95	14	0	13.34	0	0.979995867	-22.4643904	220	6	1.1	0.9;
	8	1	343.4	53.1	0.70508	36.832433	0	1.02452556	-15.0166463	380	6	1.1	0.9;
	9	1	-0	-0	0	75.076713	0	0.995376893	12.1913093	380	5	1.1	0.9;
	10	1	31.03	10.3	0	0.65	0	0.935542953	-14.4974935	110	21	1.1	0.9;
	11	1	0	-0	0	3.41	0	1.03851155	0.471967299	154	1	1.1	0.9;
	12	2	0	0	0	0	0	1.004054	96.9194454	20	3	1.1	0.9;
	13	1	14.3	2	0	1.91	0	1.04615153	18.2158232	154	1	1.1	0.9;
	14	1	134	24.7	0	12.44	0	1.02915711	2.9166536	220	5	1.1	0.9;
	15	1	0	0	0	0	0	0.967332813	-11.9505258	150	9	1.1	0.9;
	16	1	-6.11	2	0	0.47	0	1.04839997	-7.11844322	150	9	1.1	0.9;
	17	1	-22.74	-8.32	0	6.5	0	1.01080657	-21.5657409	220	6	1.1	0.9;
	18	2	0	0	0	0	0	1.043087	9.88383854	20	14	1.1	0.9;
	19	1	59.67	26.7	0	12.84	0	1.02981791	-22.4122115	220	4	1.1	0.9;
	20	1	30.6	4.3	0	5.15	0	0.995726941	29.1195653	154	1	1.1	0.9;
	21	1	0	-0	0.234457	-0.195381	0	1.0244617	-14.1526033	380	6	1.1	0.9;
	22	1	67.67	12.1	0	2.18	0	1.01262322	33.9629925	220	3	1.1	0.9;
	23	1	0	0	0.295874	20.603438	0	1.02325273	45.4573926	380	3	1.1	0.9;
	24	1	25.33	7.5	0	2.39	0	0.977846643	-14.0177558	110	12	1.1	0.9;
	25	1	1.4	0.2	0	4.93	0	1.01073084	29.6433779	154	1	1.1	0.9;
	26	1	161.2	39.3	0	30.71	0	1.03237614	5.31849648	220	5	1.1	0.9;
	27	1	0	-0	0	0.85	0	1.03239013	8.79999429	220	5	1.1	0.9;
	28	1	19.62	7.1	0	1.15	0	0.999412976	-5.27597421	110	19	1.1	0.9;
	29	2	0	0	0	0	0	1.033319	0.0748627558	20	18	1.1	0.9;
	30	1	31.94	8.8	0	0.73	0	1.01552477	-5.66651849	110	22	1.1	0.9;
	31	1	0	-0	0.235277	0.313936	0	1.02952564	40.0854875	220	3	1.1	0.9;
	32	1	167.3	54.8	0	110.54	0	1.01036858	24.7535929	380	5	1.1	0.9;
	33	2	0	0	0	0	0	1.018631	-12.8755173	20	4	1.1	0.9;
	34	1	-0	0	0	14.82	0	1.04982375	40.079249	380	13	1.1	0.9;
	35	1	0	0	0	0	0	1.00983793	-11.7586425	150	9	1.1	0.9;
	36	1	152.9	49.4	0	27.65	0	0.983894582	13.5201567	380	5	1.1	0.9;
	37	1	-0	0	0	0.56	0	1.02808723	-10.1451767	150	9	1.1	0.9;
	38	1	69.68	43.2	0	6.3	0	0.918518605	-13.928938	150	9	1.1	0.9;
	39	2	0	0	0	0	0	1.073284	-1.02107718	20	9	1.1	0.9;
	40	1	0	-0	0	37.54	0	1.00280336	-16.3947959	220	4	1.1	0.9;
	41	1	0	-0	0	0.25	0	1.02084564	-11.8722273	220	4	1.1	0.9;
	42	2	0	0	0	0	0	0.985213	25.634389	11	1	1.1	0.9;
	43	1	13.51	4.9	0	1.8	0	1.02316403	-3.52828007	110	19	1.1	0.9;
	44	1	10.51	3.5	0	0.31	0	0.990884283	-12.2464147	110	12	1.1	0.9;
	45	2	0	0	0	0	0	1.012099	-20.1793371	20	4	1.1	0.9;
	46	1	-0	0	0.12	15.34	0	1.0406259	-0.112736679	220	19	1.1	0.9;
	47	1	9.21	2.6	0	2	0	0.975606292	-7.7398431	110	18	1.1	0.9;
	48	1	42.75	12.8	0	13.3	0	1.05676211	52.9210096	220	8	1.1	0.9;
	49	1	-0	0	0.019959	0.320041	0	0.998827813	-11.7129766	150	10	1.1	0.9;
	50	1	16.02	4.54	0	0.1	0	0.983507306	-9.94055662	110	23	1.1	0.9;
	51	2	0	0	0	0	0	1.011416	41.5772225	14.4	1	1.1	0.9;
	52	1	27.9	4	0	4.23	0	0.988100895	13.1802062	154	1	1.1	0.9;
	53	1	20.82	7.9	0	26.89	0	1.01610368	-22.7712966	380	4	1.1	0.9;
	54	2	0	0	0	0	0	1.021005	21.8353394	20	14	1.1	0.9;
	55	1	0	0	0	7.27	0	1.0372744	5.05827869	220	5	1.1	0.9;
	56	1	10.11	3.7	0	0.81	0	1.04365715	-4.03889081	110	19	1.1	0.9;
	57	1	10.01	2.7	0	1.14	0	0.954269514	-7.68511563	110	18	1.1	0.9;
	58	1	6.31	-0	0	0.67	0	0.98111727	-5.9672995	110	18	1.1	0.9;
	59	1	2.9	0.9	0	0.6	0	1.03861502	-5.03477675	110	15	1.1	0.9;
	60	1	-0	0	0.318913	17.760815	0	1.00709565	-8.97601189	220	6	1.1	0.9;
	61	1	-0	-0	0.549745	0.432068	0	1.04743022	30.8996824	380	2	1.1	0.9;
	62	2	0	0	0	0	0	1.058268	13.5279159	20	5	1.1	0.9;
	63	2	0	0	0	0	0	1.058268	13.5279159	20	5	1.1	0.9;
	64	1	151.8	48.3	0	5.53	0	1.0085713	-21.5027713	220	4	1.1	0.9;
	65	1	127.6	31.8	0	20.51	0	0.999184297	27.1175306	150	8	1.1	0.9;
	66	2	0	0	0	0	0	1.034768	7.10973508	20	22	1.1	0.9;
	67	1	0	0	0	0.84	0	0.975762296	-7.39720895	110	21	1.1	0.9;
	68	2	0	0	0	0	0	1.035023	-12.0303666	20	4	1.1	0.9;
	69	2	0	0	0	0	0	1.035023	-12.0303666	20	4	1.1	0.9;
	70	1	110.5	-26.8	0	16.37	0	1.00864444	-8.25200601	220	6	1.1	0.9;
	71	1	-0	-0	0	0	0	1.02036104	11.9990548	20	5	1.1	0.9;
	72	1	-0	-0	0	0	0	1.02036104	11.9990548	20	5	1.1	0.9;
	73	1	0	0	0	1.23	0	0.994054763	36.753422	220	3	1.1	0.9;
	74	1	0	-0	0	0	0	1.02500254	16.4901494	20	5	1.1	0.9;
	75	1	0	-0	0	0	0	1.02500254	16.4901494	20	5	1.1	0.9;
	76	1	0	-0	0	0	0	1.02500254	16.4901494	20	5	1.1	0.9;
	77	2	0	0	0	0	0	1.038344	8.83922869	20	5	1.1	0.9;
	78	2	0	0	0	0	0	1.027383	16.5247192	20	5	1.1	0.9;
	79	2	0	0	0	0	0	1.016716	23.3938925	20	5	1.1	0.9;
	80	1	140	79.7	0	6.5	0	1.0082392	10.4138324	220	3	1.1	0.9;
	81	1	21.6	3	0	3.54	0	0.990398305	12.1315432	154	1	1.1	0.9;
	82	1	0	-0	0	2.31	0	1.00485762	8.66824898	380	5	1.1	0.9;
	83	1	119.2	20.7	0	3.31	0	1.01717694	3.23182732	220	5	1.1	0.9;
	84	1	26.43	9.9	0	9.57	0	0.990370876	-14.6793053	110	22	1.1	0.9;
	85	1	0.24	-1.66	0	0.65	0	1.02456732	2.96344349	110	18	1.1	0.9;
	86	2	0	0	0	0	0	1.023881	-6.20116909	20	6	1.1	0.9;
	87	1	-0	0	0	0	0	1.0146498	-10.850205	20	6	1.1	0.9;
	88	1	-0	0	0	0	0	1.0146498	-10.850205	20	6	1.1	0.9;
	89	1	0	0	0	58.57	0	1.06703123	73.2434951	380	3	1.1	0.9;
	90	1	-0	0	0	1.34	0	0.965698013	-5.87303697	110	18	1.1	0.9;
	91	1	187.9	110.2	0	21.25	0	1.01030862	32.280056	380	3	1.1	0.9;
	92	1	14.92	5.5	0	1.31	0	1.05638043	-2.7472375	110	15	1.1	0.9;
	93	1	-18.52	6.1	0	0.79	0	0.933013905	-12.5094574	150	9	1.1	0.9;
	94	2	0	0	0	0	0	1.022611	19.3662921	11	1	1.1	0.9;
	95	1	4.61	1.7	0	2.32	0	0.998122762	1.41000254	110	19	1.1	0.9;
	96	2	0	0	0	0	0	1.043225	-5.83127583	20	4	1.1	0.9;
	97	2	0	0	0	0	0	1.043225	-5.83127583	20	4	1.1	0.9;
	98	2	0	0	0	0	0	1.043225	-5.83127583	20	4	1.1	0.9;
	99	2	0	0	0	0	0	1.031885	-13.2742046	20	4	1.1	0.9;
	100	2	0	0	0	0	0	1.031885	-13.2742046	20	4	1.1	0.9;
	101	2	0	0	0	0	0	1.043225	-5.83127583	20	4	1.1	0.9;
	102	2	0	0	0	0	0	1.043225	-5.83127583	20	4	1.1	0.9;
	103	1	62.87	20.5	0	1.15	0	0.99707634	25.8552669	150	8	1.1	0.9;
	104	2	0	0	0	0	0	1.052257	46.7150587	20	3	1.1	0.9;
	105	1	13.5	14.8	0	132.435168	0	1.1423647	-1.37338279	380	9	1.2	0.8;
	106	1	126.3	42.4	0	55.24	0	1.04208751	30.4691491	150	8	1.1	0.9;
	107	2	0	0	0	0	0	1.028153	79.1196727	20	3	1.1	0.9;
	108	1	6.91	-4.6	0	5.75	0	1.02022299	-14.7630451	220	4	1.1	0.9;
	109	1	15.72	5.2	0	0.11	0	0.997966998	-14.3722398	110	12	1.1	0.9;
	110	2	0	0	0	0	0	1.051233	87.6444147	20	3	1.1	0.9;
	111	1	16.12	4.3	0	0.49	0	1.04070841	-3.3286286	110	23	1.1	0.9;
	112	1	38.74	6.1	0	1.17	0	1.01480236	-27.0133026	220	4	1.1	0.9;
	113	1	22.13	10.7	0	14.21	0	1.05681634	52.9306986	220	8	1.1	0.9;
	114	2	0	0	0	0	0	1.030832	-11.1224223	20	4	1.1	0.9;
	115	2	0	0	0	0	0	1.019	-4.30792278	20	10	1.1	0.9;
	116	1	0	-0	0	0.73	0	1.01574898	-24.1020949	220	4	1.1	0.9;
	117	1	0	0	0	0.83	0	0.982670771	0.886446345	110	18	1.1	0.9;
	118	1	138.8	136.7	0	8.76	0	1.00581974	41.2430891	380	3	1.1	0.9;
	119	1	137.3	66.4	0.174767	14.17407	0	1.04739449	-4.57116514	220	23	1.1	0.9;
	120	1	67.76	19.18	0	1.47	0	0.992228626	88.7354307	150	1	1.1	0.9;
	121	2	0	0	0	0	0	1.045359	8.14377712	20	14	1.1	0.9;
	122	1	0	-0	0	6.62	0	0.988607857	40.9147384	220	3	1.1	0.9;
	123	1	-0	-0	0	7.22	0	1.02607315	45.2041487	380	1	1.1	0.9;
	124	1	1	0.3	0	0.19	0	1.04640625	-3.26170047	110	19	1.1	0.9;
	125	1	20.9	3	0	5.74	0	0.979539166	40.565888	154	1	1.1	0.9;
	126	1	0	0	0	0.12	0	1.05426064	-5.2590713	150	9	1.1	0.9;
	127	1	21.52	5.1	0	0.5	0	1.0159864	6.63672297	110	18	1.1	0.9;
	128	1	71.98	28.8	0	11	0	0.992512247	-5.85090595	220	6	1.1	0.9;
	129	1	0	0	0.205132	4.470744	0	0.998890702	23.7215909	380	2	1.1	0.9;
	130	1	363.25	115.39	0	3.95	0	1.0325782	-0.830897395	220	5	1.1	0.9;
	131	1	192.9	73.3	0	20.75	0	1.00912911	30.7417367	380	3	1.1	0.9;
	132	2	0	0	0	0	0	0.996117	29.1217541	11	1	1.1	0.9;
	133	2	0	0	0	0	0	1.042317	11.037495	20	14	1.1	0.9;
	134	2	0	0	0	0	0	1.044129	-6.07124248	20	4	1.1	0.9;
	135	2	0	0	0	0	0	1.030832	-11.1224223	20	4	1.1	0.9;
	136	2	0	0	0	0	0	1.049674	86.9482024	20	3	1.1	0.9;
	137	1	17.52	6.3	0	0.26	0	1.03727454	0.205951892	110	19	1.1	0.9;
	138	1	33.14	12	0	0.65	0	0.998635646	-2.3182186	110	19	1.1	0.9;
	139	1	40.44	25	0	9.82	0	0.982796273	-10.8505815	150	9	1.1	0.9;
	140	1	193.17	53.37	0	4.58	0	1.00849594	11.8836642	220	5	1.1	0.9;
	141	1	90.7	25.5	0	3.11	0	1.08009358	24.5907295	220	3	1.2	0.8;
	142	1	176.3	-58.9	0	24.77	0	1.01014204	-1.78899846	380	6	1.1	0.9;
	143	1	35.94	22.3	0	0	0	1.04272102	-8.97247726	150	9	1.1	0.9;
	144	2	0	0	0	0	0	1.034631	6.52207088	20	14	1.1	0.9;
	145	2	0	0	0	0	0	1.040587	36.1872763	20	5	1.1	0.9;
	146	2	0	0	0	0	0	1.044313	35.0754168	20	5	1.1	0.9;
	147	2	0	0	0	0	0	1.044313	35.0754168	20	5	1.1	0.9;
	148	1	143.9	123.2	0	72.64	0	1.01403348	31.949044	380	3	1.1	0.9;
	149	1	-0	-0	0	3.77	0	0.998766456	-24.190182	220	6	1.1	0.9;
	150	1	-0	8.4	0	15.72	0	1.03576389	-8.70877754	150	9	1.1	0.9;
	151	2	0	0	0	0	0	1.023215	16.321192	13.8	1	1.1	0.9;
	152	1	51.36	-8.8	0	2.15	0	0.956450633	-29.1504881	220	6	1.1	0.9;
	153	2	0	0	0	0	0	1.027348	17.910804	20	14	1.1	0.9;
	154	2	0	0	0	0	0	1.05252	75.3217697	20	3	1.1	0.9;
	155	1	-0	-0	0	82.55	0	1.02069395	-7.30725738	380	6	1.1	0.9;
	156	2	0	0	0	0	0	1.034597	17.1939631	20	6	1.1	0.9;
	157	1	322.7	11.9	0	10.28	0	0.998575508	-13.948969	380	6	1.1	0.9;
	158	1	303.6	79.8	0.019533	1.690467	0	1.03070753	11.6339271	220	5	1.1	0.9;
	159	1	3.8	1.3	0	0.4	0	1.00356259	5.25336514	110	18	1.1	0.9;
	160	1	137	19.5	0	4.9	0	1.00517575	9.86167561	154	1	1.1	0.9;
	161	2	0	0	0	0	0	1.034597	17.1939631	20	6	1.1	0.9;
	162	2	0	0	0	0	0	1.034597	17.1939631	20	6	1.1	0.9;
	163	1	0	0	0	0	0	0.999237074	-12.1310517	150	9	1.1	0.9;
	164	1	61.07	36	0	3.09	0	1.04197311	1.76523052	220	11	1.1	0.9;
	165	2	0	0	0	0	0	1.030832	-11.1224223	20	4	1.1	0.9;
	166	1	-0	0	0	3.24	0	1.06017064	17.2904175	220	3	1.1	0.9;
	167	1	0	0	0	6.520303	0	1.02522085	12.946432	380	5	1.1	0.9;
	168	1	55.7	7.9	0	4.21	0	0.982789914	33.2479388	154	1	1.1	0.9;
	169	1	0	0	0	4.21	0	1.04425104	7.41990221	220	5	1.1	0.9;
	170	1	1.8	0.7	0	0.3	0	0.968953968	-2.48932068	110	19	1.1	0.9;
	171	1	0	-0	0	0.71	0	1.00425674	-11.2299754	150	9	1.1	0.9;
	172	1	2.5	0	0	0.96	0	0.95423172	-7.92054451	110	18	1.1	0.9;
	173	1	0	0	0	0.09	0	1.07144442	-0.782946764	150	9	1.1	0.9;
	174	1	38.94	11	0	0.64	0	0.98301138	-11.2903542	110	1	1.1	0.9;
	175	1	45.15	14.1	0	0.19	0	1.0555579	-4.13723999	110	15	1.1	0.9;
	176	1	0	-0	0	5.75	0	0.994627775	35.7858162	220	3	1.1	0.9;
	177	1	0	0	0.019004	4.360996	0	1.03998319	5.3615082	220	11	1.1	0.9;
	178	1	0	-0	0.566322	-0.241138	0	1.06629084	36.9226309	220	5	1.1	0.9;
	179	2	0	0	0	0	0	1.023144	-10.830127	20	4	1.1	0.9;
	180	1	17.22	5.7	0	1.22	0	0.938902103	-10.2052767	110	21	1.1	0.9;
	181	1	-0	-0	0	0	0	1.02155571	10.4750156	20	14	1.1	0.9;
	182	2	0	0	0	0	0	1.054937	2.92615319	20	20	1.1	0.9;
	183	1	0	0	0	4.3	0	1.00620966	-1.20217422	220	6	1.1	0.9;
	184	1	23.73	12.7	0	0.52	0	1.02021327	11.206725	220	5	1.1	0.9;
	185	1	121.9	7.4	0	1.34	0	1.01022809	14.7778695	220	3	1.1	0.9;
	186	1	0	-0	0.135375	47.750675	0	1.04319831	-20.8896332	380	10	1.1	0.9;
	187	1	47.35	16.4	0	4.08	0	1.02671987	-13.929278	110	22	1.1	0.9;
	188	1	-0	0	0	0	0	1.02137983	-23.6035593	20	4	1.1	0.9;
	189	1	-0	-0	0	21.39	0	1.0431562	-17.406956	380	1	1.1	0.9;
	190	1	38.14	12.5	0	6.28	0	1.0069049	28.7769085	150	8	1.1	0.9;
	191	1	54.2	7.8	0	94.9	0	0.971393616	28.9707499	400	1	1.1	0.9;
	192	1	130.6	84.9	0	4.22	0	1.00769927	5.03780027	220	7	1.1	0.9;
	193	1	7.91	2.6	0	0.74	0	0.982951289	-11.9485523	110	12	1.1	0.9;
	194	1	42.1	74.61	0	37.58	0	0.983956798	89.0343192	150	1	1.1	0.9;
	195	1	-75.38	7.8	0	29.9	0	1.0589148	-15.4381355	380	10	1.1	0.9;
	196	2	0	0	0	0	0	1.021915	-11.3166953	20	6	1.1	0.9;
	197	2	0	0	0	0	0	1.005341	-3.27574892	20	4	1.1	0.9;
	198	1	41.05	14.3	0	11.53	0	1.00291603	-1.73614392	220	6	1.1	0.9;
	199	1	-0	-0	0	4.14	0	1.02991662	44.5704732	220	8	1.1	0.9;
	200	1	100.9	49.3	0.020067	4.329933	0	0.982030364	23.9441065	220	13	1.1	0.9;
	201	1	-0	0	0.116699	1.102475	0	1.03033185	-3.70310143	220	6	1.1	0.9;
	202	1	0	0	0	0	0	1.03282411	31.6690836	150	8	1.1	0.9;
	203	1	-0	0	0	2.03	0	1.02755613	17.4807689	220	5	1.1	0.9;
	204	1	-0	0	0	98.53	0	1.05665449	45.9513746	380	14	1.1	0.9;
	205	1	2.8	264.7	0.529803	56.537931	0	1.03258033	-13.5356204	380	4	1.1	0.9;
	206	1	38.34	5.6	0	7.64	0	1.02905029	19.0324191	220	5	1.1	0.9;
	207	2	0	0	0	0	0	1.016461	25.0622793	20	5	1.1	0.9;
	208	1	269.6	65.7	0	0	0	1.0946507	-0.766955948	120	20	1.2	0.8;
	209	1	-8.71	-19.54	0	0	0	1.04821992	44.2140446	150	8	1.1	0.9;
	210	1	160	3.3	0.076728	5.693272	0	1.04030357	13.801285	220	7	1.1	0.9;
	211	1	32.34	12	0	6.1	0	1.0296551	20.0999272	220	5	1.1	0.9;
	212	1	100.1	45.1	0	1.11	0	1.00750577	-13.8387136	380	6	1.1	0.9;
	213	1	12.31	3.9	0.076917	5.053083	0	1.0478335	30.8829668	220	5	1.1	0.9;
	214	1	131.75	24.35	0	4.48	0	1.02911087	-2.71230877	154	1	1.1	0.9;
	215	1	0	0	0	107.29	0	0.965663382	21.3944712	400	1	1.1	0.9;
	216	1	0	-0	0	20.96	0	1.03698256	-16.3732446	220	4	1.1	0.9;
	217	1	0	0	0	0.56	0	0.99925317	-3.07216929	150	7	1.1	0.9;
	218	1	0	0	0	1.29	0	0.996425694	-14.706142	110	12	1.1	0.9;
	219	1	0	-0	0	1.7	0	0.994379234	-5.86886659	110	21	1.1	0.9;
	220	2	0	0	0	0	0	1.055654	42.3364748	20	3	1.1	0.9;
	221	2	0	0	0	0	0	1.055654	42.3364748	20	3	1.1	0.9;
	222	2	0	0	0	0	0	1.051105	43.4576979	20	3	1.1	0.9;
	223	2	0	0	0	0	0	1.055654	42.3364748	20	3	1.1	0.9;
	224	2	0	0	0	0	0	1.051105	43.4576979	20	3	1.1	0.9;
	225	2	0	0	0	0	0	1.051105	43.4576979	20	3	1.1	0.9;
	226	1	9.21	3.3	0	1.2	0	1.00954605	7.82029268	110	19	1.1	0.9;
	227	1	0	-0	0.488616	70.580637	0	0.99397435	16.4317347	380	5	1.1	0.9;
	228	1	166	60.3	0	0.57	0	1.00545296	34.2256601	220	3	1.1	0.9;
	229	2	0	0	0	0	0	1.034441	34.3019792	20	10	1.1	0.9;
	230	1	-0	0	0	0.1	0	1.03051756	-8.9926441	150	9	1.1	0.9;
	231	1	79.4	11.3	0	4.92	0	1.01050063	23.3018452	154	1	1.1	0.9;
	232	1	0	0	0	0.16	0	1.09913933	-6.85429676	150	9	1.1	0.9;
	233	1	-0	-0	0	66.65	0	1.04105594	16.9327984	380	6	1.1	0.9;
	234	1	-597.44	-326.86	0	0	0	1.03531946	22.7166676	27	3	1.1	0.9;
	235	1	147.76	32.73	0	8.34	0	1.04736663	16.5497955	220	5	1.1	0.9;
	236	1	0	-0	0	5.17	0	1.03000959	26.5464555	150	8	1.1	0.9;
	237	1	26.8	-3.7	0	51.261678	0	1.08046039	-4.88712077	380	9	1.1	0.9;
	238	1	-0	0	0.176128	3.073227	0	1.03138739	39.6125481	220	3	1.1	0.9;
	239	1	257.5	131.1	0	1.08	0	1.0275149	22.5176029	220	3	1.1	0.9;
	240	1	16.7	2.4	0	6.09	0	0.994810085	35.6475767	154	1	1.1	0.9;
	241	2	0	0	0	0	0	1.037622	23.5426329	20	14	1.1	0.9;
	242	1	-0	-0	0	1.91	0	1.0542093	-8.44726904	150	9	1.1	0.9;
	243	2	0	0	0	0	0	1.053647	55.1572218	20	3	1.1	0.9;
	244	1	100.8	13.2	0	5.24	0	1.08352594	1.60494689	220	5	1.1	0.9;
	245	1	111.7	10.96	0	4.22	0	1.00591428	-20.6324755	220	4	1.1	0.9;
	246	1	90.38	-5.05	0	8.49	0	1.03811095	41.2632061	220	13	1.1	0.9;
	247	1	370.5	-17	0	9.91	0	1.04194429	-1.22428522	220	5	1.1	0.9;
	248	2	0	0	0	0	0	1.026279	26.7618833	20	10	1.1	0.9;
	249	1	41.05	-46	0.056872	19.253128	0	1.05641004	2.10449088	220	11	1.1	0.9;
	250	2	0	0	0	0	0	1.012099	-20.1793371	20	4	1.1	0.9;
	251	1	9.91	3.2	0	0.67	0	0.985918312	-16.0877095	110	12	1.1	0.9;
	252	1	-0.69	-5.46	0	5.07	0	1.0503415	-7.81043052	150	9	1.1	0.9;
	253	1	55.46	8.4	0	5	0	1.0152387	-28.6025753	220	4	1.1	0.9;
	254	1	94.9	36.2	0	16.46	0	0.962724512	-16.8159868	220	10	1.1	0.9;
	255	1	81.09	48	0	0.03	0	1.0178165	-10.8428757	150	9	1.1	0.9;
	256	1	0	0	0	113.7	0	1.08601104	6.49066025	380	18	1.2	0.8;
	257	1	210.4	159.2	0.100208	131.579896	0	1.01799957	-23.5902126	380	4	1.1	0.9;
	258	2	0	0	0	0	0	0.955439	45.7805862	10.6	1	1.1	0.9;
	259	2	0	0	0	0	0	1.03425	10.4250234	20	14	1.1	0.9;
	260	1	19.32	26	0	0.69	0	1.03665938	66.6171652	220	3	1.1	0.9;
	261	1	29.83	7.3	0	6.49	0	1.02585797	0.21302811	220	5	1.1	0.9;
	262	1	-0	-0	0	2.42	0	1.03694387	15.263627	220	5	1.1	0.9;
	263	1	20.9	3	0	4.11	0	1.00777152	14.7304413	154	1	1.1	0.9;
	264	1	19.92	6.6	0	0.56	0	0.984040582	-8.73874468	110	21	1.1	0.9;
	265	1	57.16	2	0	1.48	0	0.979512194	-13.6861788	110	22	1.1	0.9;
	266	2	0	0	0	0	0	1.005915	-0.740147937	20	18	1.1	0.9;
	267	1	36.84	13.9	0	3.3	0	1.05250893	7.96665273	220	5	1.1	0.9;
	268	1	-15.04	-5.12	0	0.43	0	0.992640095	-5.67810579	110	18	1.1	0.9;
	269	1	9.21	6	0.060012	0.149988	0	0.995605738	0.114089544	110	19	1.1	0.9;
	270	2	0	0	0	0	0	1.003342	20.9614806	10.6	1	1.1	0.9;
	271	2	0	0	0	0	0	1.053159	30.4972499	20	5	1.1	0.9;
	272	1	-0	0	0.114032	0.684974	0	1.05122662	93.3710447	380	3	1.1	0.9;
	273	2	0	0	0	0	0	1.051456	30.0590179	20	5	1.1	0.9;
	274	2	0	0	0	0	0	1.051088	30.0014411	20	5	1.1	0.9;
	275	2	0	0	0	0	0	1.051088	30.0014411	20	5	1.1	0.9;
	276	2	0	0	0	0	0	1.050379	29.8611599	20	5	1.1	0.9;
	277	1	119.9	3.7	0	3.33	0	1.01853861	51.5737427	220	3	1.1	0.9;
	278	2	0	0	0	0	0	0.960771	41.6119368	21	1	1.1	0.9;
	279	1	-0	-0	0.172756	-0.134366	0	1.03524946	40.0547107	150	8	1.1	0.9;
	280	1	-0	0	0.039023	0.210733	0	1.02504031	-19.6171332	220	6	1.1	0.9;
	281	1	73.14	21.55	0	8.52	0	1.02791047	19.129446	220	5	1.1	0.9;
	282	1	-0	-0	0	12.48	0	1.02592963	0.21960863	220	5	1.1	0.9;
	283	2	0	0	0	0	0	1.000621	16.1294436	11	1	1.1	0.9;
	284	1	0	-0	0.401208	101.317571	0	1.09328471	72.2016168	380	3	1.2	0.8;
	285	1	39.74	11.8	0	1.44	0	1.0171515	10.9501046	220	5	1.1	0.9;
	286	1	44.35	5.1	0	4	0	1.03268688	-20.3434514	220	4	1.1	0.9;
	287	1	86.8	28.4	0	1.34	0	0.995765475	27.3562515	150	8	1.1	0.9;
	288	1	50.56	5.9	0	10.58	0	1.00711707	-16.8198059	220	4	1.1	0.9;
	289	2	0	0	0	0	0	1.040289	49.3467381	20	10	1.1	0.9;
	290	1	0	0	0	4.73	0	1.01752163	-25.2200298	220	4	1.1	0.9;
	291	1	110.9	32.7	0	15.4	0	1.01041487	25.3147435	220	14	1.1	0.9;
	292	1	18.2	2.6	0	12.38	0	0.996302892	36.8894467	154	1	1.1	0.9;
	293	1	0	0	0.181549	14.690889	0	1.05101747	-1.68699833	220	18	1.1	0.9;
	294	2	0	0	0	0	0	0.999187	22.5988759	14.4	1	1.1	0.9;
	295	1	46.15	18.2	0	1.29	0	1.02994178	32.2461435	150	8	1.1	0.9;
	296	2	0	0	0	0	0	0.989117	30.5513229	6.3	1	1.1	0.9;
	297	1	55.46	15.7	0	13.46	0	1.02947418	-22.2633918	220	4	1.1	0.9;
	298	1	34.04	12.3	0	0.23	0	1.04234583	0.147979742	110	19	1.1	0.9;
	299	2	0	0	0	0	0	0.993468	41.5200569	11	1	1.1	0.9;
	300	1	321.98	84.4	0	1.34	0	1.01976542	13.6756176	220	5	1.1	0.9;
	301	1	42.55	8.2	0	2.06	0	1.03299644	3.74050789	220	5	1.1	0.9;
	302	1	33.44	10	0	1.36	0	1.01596876	-2.73388771	110	3	1.1	0.9;
	303	1	-0	0	0.019646	0.570354	0	0.996319396	-11.8631918	110	12	1.1	0.9;
	304	2	0	0	0	0	0	1.037997	-17.1030434	20	4	1.1	0.9;
	305	2	0	0	0	0	0	1.030407	31.1774874	20	5	1.1	0.9;
	306	2	0	0	0	0	0	1.030407	31.1774874	20	5	1.1	0.9;
	307	2	0	0	0	0	0	1.049321	23.592488	20	5	1.1	0.9;
	308	2	0	0	0	0	0	1.049321	23.592488	20	5	1.1	0.9;
	309	2	0	0	0	0	0	1.05655	32.6249033	20	5	1.1	0.9;
	310	2	0	0	0	0	0	1.05655	32.6249033	20	5	1.1	0.9;
	311	2	0	0	0	0	0	1.05655	32.6249033	20	5	1.1	0.9;
	312	2	0	0	0	0	0	1.05655	32.6249033	20	5	1.1	0.9;
	313	1	-24.99	-4.94	0	6.99	0	1.08773123	70.7918366	220	3	1.2	0.8;
	314	1	95.69	24.54	0	2.85	0	1.01670082	20.5739358	220	13	1.1	0.9;
	315	2	0	0	0	0	0	1.021202	4.58908805	6.3	1	1.1	0.9;
	316	1	37.34	10.9	0	0.63	0	0.980624908	-12.118209	110	1	1.1	0.9;
	317	1	340	93.8	0.230291	74.777686	0	1.05028223	39.8691005	380	13	1.1	0.9;
	318	1	-0	0	0	2.04	0	1.05385409	-5.34971202	150	9	1.1	0.9;
	319	1	155.6	54.7	0	2.21	0	1.02635241	2.56123396	220	5	1.1	0.9;
	320	1	105.2	0.1	0	7.36	0	1.05228542	24.244778	220	5	1.1	0.9;
	321	1	69.83	15.12	0	2.23	0	1.02864872	13.9870302	220	5	1.1	0.9;
	322	1	-0	0	1.107693	6.867601	0	1.05403768	11.3733161	380	7	1.1	0.9;
	323	2	0	0	0	0	0	1.016993	28.8996567	20	5	1.1	0.9;
	324	2	0	0	0	0	0	1.024179	4.14934301	11	1	1.1	0.9;
	325	2	0	0	0	0	0	0.996355	25.8490641	6.3	1	1.1	0.9;
	326	1	-0	-0	0.197696	3.784535	0	1.00923482	7.6021226	380	5	1.1	0.9;
	327	1	176.2	20.8	0.019425	4.590288	0	1.02162419	91.9392888	150	1	1.1	0.9;
	328	2	0	0	0	0	0	1.023168	22.7887356	20	10	1.1	0.9;
	329	1	27.03	8.8	0	1.84	0	1.0168997	1.1657076	110	21	1.1	0.9;
	330	1	0	-0	0	0.28	0	0.977728724	-5.0900352	150	6	1.1	0.9;
	331	2	0	0	0	0	0	1.006233	13.2205209	13.8	1	1.1	0.9;
	332	2	0	0	0	0	0	0.996766	19.5281575	6.3	1	1.1	0.9;
	333	1	-0	0	0	1.15	0	1.04113856	7.01223812	220	5	1.1	0.9;
	334	1	0	-0	0	0	0	1.0174972	-16.3076204	20	4	1.1	0.9;
	335	1	14.62	4.8	0	1.02	0	0.99740281	-9.80994604	110	12	1.1	0.9;
	336	2	0	0	0	0	0	1.010862	-11.7089678	20	4	1.1	0.9;
	337	1	0	-0	0	0	0	1.0174972	-16.3076204	20	4	1.1	0.9;
	338	2	0	0	0	0	0	1.00038	-7.15808816	20	4	1.1	0.9;
	339	1	-0	0	0	0	0	1.00827811	-11.8261514	20	4	1.1	0.9;
	340	1	45.05	-2.2	0	3.96	0	1.01819819	-17.4211443	220	4	1.1	0.9;
	341	1	0	-0	0	2.55	0	1.02145505	5.71682443	220	7	1.1	0.9;
	342	1	-23.43	57.4	0	0	0	1.06481074	19.4989694	150	2	1.1	0.9;
	343	1	426.6	93.7	0	80.94	0	1.02742814	0.324416982	380	6	1.1	0.9;
	344	1	152.07	22.52	0	7.87	0	0.990880894	-20.5222413	220	4	1.1	0.9;
	345	2	0	0	0	0	0	1.030395	-7.59800695	20	4	1.1	0.9;
	346	2	0	0	0	0	0	1.030395	-7.59800695	20	4	1.1	0.9;
	347	1	0	0	0	0.7	0	1.01704214	-4.34679052	150	9	1.1	0.9;
	348	1	2.5	3.8	0	0.15	0	0.952108875	-6.52580776	110	18	1.1	0.9;
	349	1	30.53	10.9	0.589029	2.678252	0	1.02098585	12.0863628	220	19	1.1	0.9;
	350	1	34.04	4.4	0	1.25	0	0.969248959	-16.4666151	110	22	1.1	0.9;
	351	2	0	0	0	0	0	1.024484	-7.91428803	20	6	1.1	0.9;
	352	1	45.85	7	0	1.05	0	1.01336789	-28.0483185	220	4	1.1	0.9;
	353	1	-0	0	0	30.97	0	1.03680069	65.7760776	380	3	1.1	0.9;
	354	2	0	0	0	0	0	1.029166	14.1045521	20	14	1.1	0.9;
	355	1	46.05	16.9	0.03829	0.29171	0	1.0452836	-3.29149988	110	19	1.1	0.9;
	356	1	0	0	0	0	0	1.02869353	-10.4640985	150	9	1.1	0.9;
	357	1	0	0	0	3.95	0	1.04914355	86.2908951	220	3	1.1	0.9;
	358	2	0	0	0	0	0	1.050725	41.6982298	20	10	1.1	0.9;
	359	1	-876.96	-325.87	0	0	0	1.04351056	30.3280211	27	3	1.1	0.9;
	360	2	0	0	0	0	0	1.028641	-18.9835212	20	4	1.1	0.9;
	361	2	0	0	0	0	0	1.028641	-18.9835212	20	4	1.1	0.9;
	362	2	0	0	0	0	0	1.028641	-18.9835212	20	4	1.1	0.9;
	363	2	0	0	0	0	0	1.028641	-18.9835212	20	4	1.1	0.9;
	364	2	0	0	0	0	0	1.00564	-11.9736509	20	4	1.1	0.9;
	365	2	0	0	0	0	0	0.997585	1.71665929	15.75	1	1.1	0.9;
	366	1	167.9	18.2	0	5.97	0	1.05635572	24.2688916	220	3	1.1	0.9;
	367	1	0	-0	0	13.49	0	1.02486517	44.0333342	150	8	1.1	0.9;
	368	2	0	0	0	0	0	1.028641	-18.9835212	20	4	1.1	0.9;
	369	2	0	0	0	0	0	1.028641	-18.9835212	20	4	1.1	0.9;
	370	1	-0	-0	0	0.68	0	1.0085969	32.2837464	150	8	1.1	0.9;
	371	1	44.35	14.8	0	1.94	0	0.97745564	-9.95879938	110	21	1.1	0.9;
	372	1	131.9	31.1	0.457733	14.047628	0	1.04465054	0.19495804	220	1	1.1	0.9;
	373	1	0	-0	0	0.72	0	0.987235773	-1.96832814	110	18	1.1	0.9;
	374	1	224.2	73.9	0.039171	84.090829	0	1.02536389	37.815617	380	13	1.1	0.9;
	375	1	-0	0	0	26.3	0	1.00212426	-16.3917582	220	4	1.1	0.9;
	376	1	128.9	73.7	0	25.37	0	1.03057853	46.7544005	380	3	1.1	0.9;
	377	1	0	-0	0	0	0	0.994400228	-13.910967	20	22	1.1	0.9;
	378	1	0	-0	0	0	0	0.994400228	-13.910967	20	22	1.1	0.9;
	379	1	-0	-0	0	13.85	0	1.0452448	37.1684145	380	3	1.1	0.9;
	380	1	118.4	16.9	0	8.02	0	0.987347647	32.2834085	154	1	1.1	0.9;
	381	1	0	0	0	0	0	0.990203733	-10.3417624	20	22	1.1	0.9;
	382	2	0	0	0	0	0	0.990596	-5.47029907	20	22	1.1	0.9;
	383	2	0	0	0	0	0	1.012482	-9.17167196	20	22	1.1	0.9;
	384	1	0	0	0	0	0	0.990203733	-10.3417624	20	22	1.1	0.9;
	385	1	-0	-0	0	2.66	0	1.04251476	74.2910249	220	3	1.1	0.9;
	386	1	-0	0	0	4.06	0	1.0295304	5.14755444	220	1	1.1	0.9;
	387	1	0	0	0.135493	12.74062	0	1.05652318	-3.59074734	380	21	1.1	0.9;
	388	1	-0	0	0.276837	2.240894	0	1.06157934	10.001296	380	16	1.1	0.9;
	389	1	-0	-0	0	7.09	0	1.02478305	-6.14794926	220	6	1.1	0.9;
	390	1	113.9	24.5	0	6.72	0	1.01134019	-19.7463583	220	4	1.1	0.9;
	391	1	88	12.6	0	22.25	0	1.02437372	-3.70489731	154	1	1.1	0.9;
	392	2	0	0	0	0	0	1.030636	-1.30400166	6.3	1	1.1	0.9;
	393	1	42.67	12.1	0	14.84	0	1.02305943	-13.1839646	150	9	1.1	0.9;
	394	2	0	0	0	0	0	1.0326	6.34769344	20	14	1.1	0.9;
	395	2	0	0	0	0	0	1.028283	18.2566092	20	14	1.1	0.9;
	396	2	0	0	0	0	0	1.029542	-5.42024776	20	6	1.1	0.9;
	397	1	0	-0	0	1.29	0	1.04328814	-19.32681	380	10	1.1	0.9;
	398	1	-0	-0	0	9.41	0	1.06436748	3.19984397	220	18	1.2	0.8;
	399	1	160.8	10.6	0.039515	21.960485	0	1.0130245	35.5960487	220	13	1.1	0.9;
	400	2	0	0	0	0	0	0.979015	40.5082761	10.3	1	1.1	0.9;
	401	1	126.8	21.4	0	11.43	0	1.01533438	-27.9689513	220	4	1.1	0.9;
	402	1	48.8	6.9	0	3.11	0	1.00372059	22.5708313	154	1	1.1	0.9;
	403	1	38.74	9	0	0.57	0	1.02009654	-20.471076	220	4	1.1	0.9;
	404	1	350.4	29.3	0	19.31	0	1.03657416	-1.25548573	220	11	1.1	0.9;
	405	2	0	0	0	0	0	1.00773	-7.37795333	20	2	1.1	0.9;
	406	2	0	0	0	0	0	1.00773	-7.37795333	20	2	1.1	0.9;
	407	1	103.8	2.7	0	3.33	0	1.01180564	-25.3173712	220	4	1.1	0.9;
	408	2	0	0	0	0	0	1.043492	-16.8740649	20	4	1.1	0.9;
	409	1	-0.13	-1	0	0	0	1.07873021	53.0600502	220	8	1.1	0.9;
	410	1	0	-0	0	0.66	0	1.00136158	-14.4308455	110	22	1.1	0.9;
	411	1	0	0	0	6.34	0	1.04310135	93.874436	380	1	1.1	0.9;
	412	1	96.7	26.8	0	0	0	1.0535148	19.0491272	150	2	1.1	0.9;
	413	1	0	0	0	19.54	0	1.06768054	-12.4430002	150	9	1.1	0.9;
	414	1	-0	-0	0	14.87	0	1.04049796	-5.63154487	220	23	1.1	0.9;
	415	1	0	0	0	0	0	0.989841788	-14.5320363	150	9	1.1	0.9;
	416	1	19.02	6	0	0.25	0	0.995876772	-4.11156576	110	21	1.1	0.9;
	417	1	102.1	25.3	0	1.11	0	1.0006945	28.2724582	150	8	1.1	0.9;
	418	1	-0	0	0	2.44	0	1.05048913	90.9147813	220	3	1.1	0.9;
	419	1	0	0	0	0	0	1.02073933	-9.2653006	150	9	1.1	0.9;
	420	1	113.3	30.2	0.039525	2.140475	0	1.00459898	-5.16713889	110	18	1.1	0.9;
	421	1	8.31	3	0	0.99	0	1.03170777	-3.90750706	110	19	1.1	0.9;
	422	1	119.6	29.6	0	5.34	0	1.0358429	16.2049019	220	5	1.1	0.9;
	423	2	0	0	0	0	0	1.015919	0.684549805	6.3	1	1.1	0.9;
	424	1	-0	0	0	18.07	0	1.04101009	40.3089334	380	8	1.1	0.9;
	425	1	49.9	144	1.091586	80.060431	0	1.07945269	9.28005193	380	18	1.2	0.8;
	426	1	27.33	11.9	0	1.17	0	1.02828377	15.0046333	220	5	1.1	0.9;
	427	1	191.2	-3.4	0	19.21	0	1.02955728	-22.4623747	220	4	1.1	0.9;
	428	1	-0	-0	0.028663	18.318528	0	1.02699954	93.8575854	380	1	1.1	0.9;
	429	1	101.6	14.5	0	1.94	0	0.998794994	26.8842726	154	1	1.1	0.9;
	430	1	177.1	66.9	0	71.03	0	1.0605624	9.26175089	380	16	1.1	0.9;
	431	1	0	-0	0	0.3	0	1.06949404	-0.704130111	150	9	1.1	0.9;
	432	2	0	0	0	0	0	1.016602	17.1869069	6.3	1	1.1	0.9;
	433	2	0	0	0	0	0	1.011489	7.72823064	20	23	1.1	0.9;
	434	1	0	-0	0.038538	-0.028903	0	1.03749097	-3.87670776	220	6	1.1	0.9;
	435	1	53.46	18.7	0	1.64	0	1.03144351	3.57204828	220	20	1.1	0.9;
	436	1	0	-0	0	12.73	0	1.02318103	30.0622987	220	14	1.1	0.9;
	437	1	344.7	-31.1	0	39.129841	0	1.02909305	-0.0691695835	380	6	1.1	0.9;
	438	2	0	0	0	0	0	1.016716	23.3938925	20	5	1.1	0.9;
	439	1	-0	-0	0	1.98	0	1.02041442	79.1885256	220	3	1.1	0.9;
	440	1	85.1	67	0	0.18	0	1.0770017	-1.86633273	150	9	1.1	0.9;
	441	1	0	0	0	0	0	1.02531276	10.8001271	20	5	1.1	0.9;
	442	2	0	0	0	0	0	1.043357	14.8725205	20	5	1.1	0.9;
	443	1	-0	0	0	0.08	0	1.00400036	-1.62111963	220	6	1.1	0.9;
	444	1	189.3	76.7	0	3.24	0	1.00674603	53.3710507	220	3	1.1	0.9;
	445	1	23.73	9.4	0	1.45	0	1.0417165	31.7234351	150	8	1.1	0.9;
	446	1	10.01	-21	0	8.59	0	1.02327417	-4.34168216	220	11	1.1	0.9;
	447	1	-0	-0	0	0	0	1.02036104	11.9990548	20	5	1.1	0.9;
	448	2	0	0	0	0	0	1.038795	15.2610065	20	5	1.1	0.9;
	449	1	228.1	131.8	0.95374	3.934956	0	1.02771055	-20.0770462	380	4	1.1	0.9;
	450	1	-0	-0	0	1.05	0	1.02120257	-2.99784814	150	9	1.1	0.9;
	451	1	-14.85	-4.95	0	0.37	0	1.00247548	-2.50550925	110	18	1.1	0.9;
	452	1	20.9	3	0	2.65	0	1.01265839	30.5458598	154	1	1.1	0.9;
	453	1	431.7	121.6	0	1.14	0	0.985012183	-5.26007913	220	21	1.1	0.9;
	454	2	0	0	0	0	0	0.973833	16.6738134	20	5	1.1	0.9;
	455	1	17.62	7.7	0	0.59	0	0.988614611	-13.294124	110	22	1.1	0.9;
	456	1	0	0	0	109.27	0	1.04599061	-16.0012464	380	4	1.1	0.9;
	457	1	103	12	0	0.63	0	1.03004606	-6.34673765	220	5	1.1	0.9;
	458	2	0	0	0	0	0	1.009892	2.58881961	20	9	1.1	0.9;
	459	1	0	0	0	4.76	0	1.03160151	8.57553429	220	5	1.1	0.9;
	460	1	0	0	0	25.85	0	1.0782628	-0.0684498922	380	1	1.2	0.8;
	461	1	0	0	0	0	0	0.872670688	-17.6281387	150	9	1.2	0.8;
	462	1	0	-0	0.060508	3.079577	0	0.996640727	40.3775343	220	3	1.1	0.9;
	463	2	0	0	0	0	0	1.126642	-3.20265384	380	9	1.2	0.8;
	464	1	42.05	17.2	0	1.31	0	1.03180639	26.1691321	150	8	1.1	0.9;
	465	1	-0.16	-2.91	0	0.43	0	1.04702881	38.3196028	110	8	1.1	0.9;
	466	1	0	-0	0	0.06	0	1.00755988	28.9316714	154	1	1.1	0.9;
	467	1	163.1	46.3	0	10.6	0	1.01109658	11.139294	220	5	1.1	0.9;
	468	1	0	-0	0	2.13	0	1.02006808	-9.89701711	220	10	1.1	0.9;
	469	1	-0	-0	0	2.81	0	1.05860283	21.9995676	220	3	1.1	0.9;
	470	2	0	0	0	0	0	1.046905	30.2598566	20	2	1.1	0.9;
	471	1	0	0	0.049626	-1.990412	0	1.04519876	30.5839537	380	2	1.1	0.9;
	472	1	-0	-0	0	1.05	0	1.00078939	-11.8623778	150	9	1.1	0.9;
	473	1	153.3	21.8	0	18.25	0	1.02799987	-1.19825041	154	1	1.1	0.9;
	474	1	-0	0	0	141.93	0	0.969406761	31.7713743	400	1	1.1	0.9;
	475	1	67.17	-23.9	0	0.93	0	1.05133595	90.6902592	220	3	1.1	0.9;
	476	2	0	0	0	0	0	1.029484	52.739001	20	10	1.1	0.9;
	477	2	0	0	0	0	0	1.043087	9.88383854	20	14	1.1	0.9;
	478	1	-0	0	0.114166	11.294861	0	1.06320186	79.6130288	380	3	1.1	0.9;
	479	1	382.4	86.3	0	22.29	0	1.02334824	2.45761288	220	11	1.1	0.9;
	480	2	0	0	0	0	0	1.033425	27.8563851	20	6	1.1	0.9;
	481	2	0	0	0	0	0	1.033425	27.8563851	20	6	1.1	0.9;
	482	2	0	0	0	0	0	1.033425	27.8563851	20	6	1.1	0.9;
	483	2	0	0	0	0	0	1.033425	27.8563851	20	6	1.1	0.9;
	484	1	33.5	4.8	0	5.48	0	1.0164415	18.5986463	154	1	1.1	0.9;
	485	2	0	0	0	0	0	1.059619	5.3635459	20	18	1.1	0.9;
	486	1	0.01	-0	0	0	0	1.0790979	53.1055449	220	8	1.1	0.9;
	487	1	0	0	0	12.29	0	1.01077739	14.3406071	380	3	1.1	0.9;
	488	1	291.5	51.3	0.244436	12.636488	0	1.00355904	50.2650484	220	13	1.1	0.9;
	489	1	24.23	7.1	0	1.64	0	0.988371441	-5.50314932	110	21	1.1	0.9;
	490	1	108.6	2.6	0	31.8	0	1.04280853	37.7569274	380	3	1.1	0.9;
	491	1	4	2.4	0	0.03	0	0.984715166	-10.3009241	150	9	1.1	0.9;
	492	2	0	0	0	0	0	1.041985	31.009976	20	10	1.1	0.9;
	493	1	30.03	10.9	0	1.45	0	1.00678473	-5.28046124	110	19	1.1	0.9;
	494	1	0	0	0	45.39	0	1.12002041	-1.45594069	380	15	1.2	0.8;
	495	1	524.5	43	0	6.85	0	0.991963889	-16.1281895	220	5	1.1	0.9;
	496	2	0	0	0	0	0	1.00876	-0.589064006	20	18	1.1	0.9;