function mpc = case2383wp_resqlim
%CASE2383WP_RESQLIM

%% MATPOWER Case Format : Version 2
mpc.version = '2';

%%-----  Power Flow Data  -----%%
%% system MVA base
mpc.baseMVA = 100;

%% bus data
%    bus_i    type    Pd    Qd    Gs    Bs    area    Vm    Va    baseKV    zone    Vmax    Vmin
mpc.bus = [
    1    1    0    0    0    0    1    9.39865578e-06    60.8779598    220    1    1.11    0.95;
    2    1    0    0    0    0    1    0.517478199    -156.877968    220    1    1.11    0.95;
    3    1    0    0    0    0    1    16.1860307    67.5567426    220    1    1.11    0.95;
    4    1    0    0    0    0    1    15.4279706    -162.776995    220    1    1.11    0.95;
    5    1    0    0    0    0    1    1.25732962    146.425727    220    1    1.11    0.95;
    6    1    0    0    0    0    1    4.39118975    74.8238122    400    1    1.05    0.95;
    7    1    0    0    0    0    1    24.1053979    -122.503588    220    1    1.11    0.95;
    8    1    0    0    0    0    1    11.4529933    -89.8101074    400    1    1.05    0.95;
    9    1    0    0    0    0    1    187.674986    173.560036    400    1    1.05    0.95;
    10    1    12.23    9    0    0    1    43.8376215    -75.6887628    220    1    1.11    0.95;
    11    1    0    0    0    0    1    0.0458635648    113.095194    220    1    1.11    0.95;
    12    1    0    0    0    0    1    0.263216701    -110.307742    220    1    1.11    0.95;
    13    1    0    0    0    0    1    1.30522585    69.8374261    220    1    1.11    0.95;
    14    1    0    0    0    0    1    19.4940544    180.735315    220    1    1.11    0.95;
    15    1    0    0    0    0    1    4.94161464    173.287565    400    1    1.05    0.95;
    16    1    54.88    100    0    0    1    2.37927126    -143.545371    220    1    1.11    0.95;
    17    1    77    150    0    0    1    1.5563706    -143.948425    220    1    1.11    0.95;
    18    1    153    350    0    0    1    2.18259202    0    400    1    1.05    0.95;
    19    1    0    0    0    0    1    61.9446674    -147.952394    220    1    1.11    0.95;
    20    1    0    0    0    0    1    0.184081716    -140.667777    400    1    1.05    0.95;
    21    1    0    0    0    0    1    27.6446549    170.979956    220    1    1.11    0.95;
    22    1    0    0    0    0    1    5.9828109    21.3313049    220    1    1.11    0.95;
    23    1    0    0    0    0    1    4.55767462    70.0321844    220    2    1.11    0.95;
    24    1    0    0    0    0    1    3.0431429    -71.1322054    220    2    1.11    0.95;
    25    1    0    0    0    0    1    2.17540176    185.795622    220    2    1.11    0.95;
    26    1    0    0    0    0    1    1.08658741    -154.153118    220    2    1.11    0.95;
    27    1    0    0    0    0    1    0.175820206    109.283323    220    2    1.11    0.95;
    28    1    0    0    0    0    1    0.0267740052    181.340024    220    2    1.11    0.95;
    29    1    25.98    60    0    0    1    0.124768518    99.0059115    220    2    1.11    0.95;
    30    1    25.98    60    0    0    1    0.0253730318    -8.37522119    220    2    1.11    0.95;
    31    1    20.98    50    0    0    1    0.104219461    -137.89194    400    2    1.05    0.95;
    32    1    0    0    0    0    1    0.00990600779    24.3695575    400    2    1.05    0.95;
    33    1    0    0    0    0    1    0.998868808    49.2953388    220    2    1.11    0.95;
    34    1    0    0    0    0    1    0.0895202002    -46.0004821    400    2    1.05    0.95;
    35    1    0    0    0    0    1    0.121575313    -9.70101554    400    2    1.05    0.95;
    36    1    0    0    0    0    1    0.247776149    11.9977698    400    2    1.05    0.95;
    37    1    0    0    0    0    1    0.0252066794    86.4645716    220    2    1.11    0.95;
    38    1    0    0    0    0    1    0.000901833756    -75.7826777    220    2    1.11    0.95;
    39    1    0    0    0    0    1    0.000679542917    -91.6586838    400    2    1.05    0.95;
    40    1    0    0    0    0    1    0.0339393776    -19.1230332    400    2    1.05    0.95;
    41    1    11.99    30    0    0    1    0.0222506844    -102.144238    220    2    1.11    0.95;
    42    1    11.99    30    0    0    1    0.01000915    67.0546704    220    2    1.11    0.95;
    43    1    23.98    60    0    0    1    0.0641792252    4.22503022    400    2    1.05    0.95;
    44    1    23.98    60    0    0    1    0.305286667    35.6949488    400    2    1.05    0.95;
    45    1    159.84    75    0    0    1    0.00603390964    -107.620919    220    2    1.11    0.95;
    46    1    0    0    0    0    1    0.0128171712    -37.3003131    220    2    1.11    0.95;
    47    1    0    0    0    0    1    0.62343984    26.855119    220    2    1.11    0.95;
    48    1    0    0    0    0    1    0.000100601584    -46.5532513    220    2    1.11    0.95;
    49    1    0    0    0    0    1    0.0453539749    -126.216982    220    2    1.11    0.95;
    50    1    0    0    0    0    1    0.38789371    166.466498    400    2    1.05    0.95;
    51    1    0    0    0    0    1    0.0503132766    75.3923332    400    2    1.05    0.95;
    52    1    0    0    0    0    1    0.813502075    175.20914    220    2    1.11    0.95;
    53    1    0    0    0    0    1    2.16948954    -27.4303603    220    2    1.11    0.95;
    54    1    0    0    0    0    1    1.26443144    175.077288    220    2    1.11    0.95;
    55    1    0    0    0    0    1    0.171270038    -130.911019    220    2    1.11    0.95;
    56    1    0    0    0    0    1    1.77256924    -46.1731726    220    3    1.11    0.95;
    57    1    22.98    10.96    0    0    1    0.799788908    34.9826991    220    3    1.11    0.95;
    58    1    21.98    5.79    0    0    1    0.0364366865    -21.1516845    220    3    1.11    0.95;
    59    1    0    0    0    0    1    1.71888096    -122.583225    220    3    1.11    0.95;
    60    1    0    0    0    0    1    1.42741399    -102.572013    220    3    1.11    0.95;
    61    1    0    0    0    0    1    0.0206593846    -1.38227579    220    3    1.11    0.95;
    62    1    0    0    0    0    1    0.150769253    97.3920363    220    3    1.11    0.95;
    63    1    37.37    52.69    0    0    1    0.742730635    39.7756095    220    3    1.11    0.95;
    64    1    35.37    55.32    0    0    1    0.67055878    13.6453969    220    3    1.11    0.95;
    65    1    13.39    2.02    0    0    1    28.7098542    137.879792    220    3    1.11    0.95;
    66    1    0    0    0    0    1    296.263029    -11.2983215    220    3    1.11    0.95;
    67    1    60.4    92.1    0    0    1    173.51222    10.6954783    400    3    1.05    0.95;
    68    1    0    0    0    0    1    154.490959    -9.53540391    220    3    1.11    0.95;
    69    1    0    0    0    0    1    3.81675387    164.094068    220    3    1.11    0.95;
    70    1    0    0    0    0    1    82.4611419    155.597559    220    3    1.11    0.95;
    71    1    0    0    0    0    1    2.99730883    76.0027067    220    3    1.11    0.95;
    72    1    0    0    0    0    1    2.99730883    76.0027067    220    3    1.11    0.95;
    73    1    0    0    0    0    1    27.2615433    -23.3682559    220    3    1.11    0.95;
    74    1    0    0    0    0    1    13.2952899    -90.8020042    220    3    1.11    0.95;
    75    1    0    0    0    0    1    0.43666911    46.4562755    400    3    1.05    0.95;
    76    1    0    0    0    0    1    0.14057403    1.32911144    400    3    1.05    0.95;
    77    1    0    0    0    0    1    2.18975346    -99.5179473    220    3    1.11    0.95;
    78    1    0    0    0    0    1    31.5522081    40.2187538    220    3    1.11    0.95;
    79    1    0    0    0    0    1    0.00515979713    -28.6091819    220    3    1.11    0.95;
    80    1    0    0    0    0    1    3.75104312e-05    15.1416946    220    3    1.11    0.95;
    81    1    0    0    0    0    1    0.108317347    164.004012    220    3    1.11    0.95;
    82    1    0    0    0    0    1    0.993487215    50.5408284    220    3    1.11    0.95;
    83    1    15.99    22.97    0    0    1    0.0635364232    122.669288    220    3    1.11    0.95;
    84    1    15.79    22.27    0    0    1    0.191011592    25.4078275    220    3    1.11    0.95;
    85    1    9.99    17.01    0    0    1    0.863413162    14.1624445    220    3    1.11    0.95;
    86    1    9.99    16.66    0    0    1    0.619947518    69.1838364    220    3    1.11    0.95;
    87    1    11.09    16.22    0    0    1    0.0638324027    125.329497    220    3    1.11    0.95;
    88    1    0    0    0    0    1    0.0162455181    -38.5810865    220    3    1.11    0.95;
    89    1    0    0    0    0    1    13.4615992    -97.0054647    220    3    1.11    0.95;
    90    1    0    0    0    0    1    8.67739445    -57.284567    220    3    1.11    0.95;
    91    1    0    0    0    0    1    28.3473331    -68.7694165    220    3    1.11    0.95;
    92    1    0    0    0    0    1    37.6852963    185.144119    400    3    1.05    0.95;
    93    1    9.99    16.39    0    0    1    0.00220534461    -20.7545777    220    3    1.11    0.95;
    94    1    0    0    0    0    1    0.207827606    -25.1603174    220    3    1.11    0.95;
    95    1    6.89    8.15    0    0    1    0.138409932    -147.433309    220    3    1.11    0.95;
    96    1    0    0    0    0    1    0.0247690175    -8.00337364    220    3    1.11    0.95;
    97    1    8.69    5.26    0    0    1    0.580903867    -159.681304    220    3    1.11    0.95;
    98    1    0    0    0    0    1    8.09186191e-05    8.88130035    400    3    1.05    0.95;
    99    1    0    0    0    0    1    0.120809656    92.1779516    400    3    1.05    0.95;
    100    1    0    0    0    0    1    49.3320493    69.0858123    400    3    1.05    0.95;
    101    1    0    0    0    0    1    29.0321111    -38.2727605    400    3    1.05    0.95;
    102    1    0    0    0    0    1    6.03851643    6.94806768    220    3    1.11    0.95;
    103    1    18.09    23.76    0    0    1    0.828326282    -9.97305412    220    3    1.11    0.95;
    104    1    33.68    46.11    0    0    1    1.48810699    73.6921413    220    3    1.11    0.95;
    105    1    33.78    62.95    0    0    1    0.0551001874    -161.735364    400    3    1.05    0.95;
    106    1    0    0    0    0    1    9.2884034    -12.2354335    400    3    1.05    0.95;
    107    1    0    0    0    0    1    83.0284248    -136.544401    220    3    1.11    0.95;
    108    1    0    0    0    0    1    10.0624613    -163.825155    220    3    1.11    0.95;
    109    1    1    22.36    0    0    1    0.136351339    119.19067    220    3    1.11    0.95;
    110    1    1    22.18    0    0    1    0.0291117046    -90.083325    220    3    1.11    0.95;
    111    1    26.49    18    0    0    1    0.0343982293    -97.1502524    220    4    1.11    0.95;
    112    1    0    0    0    0    1    0.0770618414    95.2939243    220    4    1.11    0.95;
    113    1    0    0    0    0    1    461.561158    60.5590815    220    4    1.11    0.95;
    114    1    0    0    0    0    1    117.449949    181.299703    220    4    1.11    0.95;
    115    1    0    0    0    0    1    2.0705877    188.333088    400    4    1.05    0.95;
    116    1    0    0    0    0    1    1.38299995    -96.6720792    400    4    1.05    0.95;
    117    1    0    0    0    0    1    14.4247153    53.0453255    220    4    1.11    0.95;
    118    1    0    0    0    0    1    0.0215386126    -53.9836907    220    4    1.11    0.95;
    119    1    0    0    0    0    1    0.0215386126    -53.9836907    220    4    1.11    0.95;
    120    1    0    0    0    0    1    8.41996286    72.4609104    220    4    1.11    0.95;
    121    1    0    0    0    0    1    40.2654468    145.949914    220    4    1.11    0.95;
    122    1    0    0    0    0    1    40.2654468    145.949914    220    4    1.11    0.95;
    123    1    5.5    7    0    0    1    8.37103471    112.405818    220    4    1.11    0.95;
    124    1    8.79    17    0    0    1    15.414085    -105.645677    220    4    1.11    0.95;
    125    1    35.7    18.3    0    0    1    0.0890218005    -73.5451546    220    4    1.11    0.95;
    126    1    25.28    15.9    0    0    1    0.0530622654    -36.7206924    220    4    1.11    0.95;
    127    1    25.71    15.3    0    0    1    0.820421761    -152.952791    400    4    1.05    0.95;
    128    1    0    0    0    0    1    0.25903511    162.616041    400    4    1.05    0.95;
    129    1    0    0    0    0    1    25.8256617    -155.613995    220    4    1.11    0.95;
    130    1    0    0    0    0    1    76.0309797    -120.78996    220    4    1.11    0.95;
    131    1    68.67    70    0    0    1    0.145645969    142.387213    220    4    1.11    0.95;
    132    1    33    45    0    0    1    5.20521738    137.727024    220    4    1.11    0.95;
    133    1    0    0    0    0    1    0.203104276    156.347585    400    4    1.05    0.95;
    134    1    0    0    0    0    1    0.00206568728    -55.22206    400    4    1.05    0.95;
    135    1    0    0    0    0    1    0.771634632    -63.8245439    220    4    1.11    0.95;
    136    1    0    0    0    0    1    0.771634632    -63.8245439    220    4    1.11    0.95;
    137    1    0    0    0    0    1    51.2791552    84.6851488    400    4    1.05    0.95;
    138    1    0    0    0    0    1    51.2791552    84.6851488    400    4    1.05    0.95;
    139    1    33.2    22.6    0    0    1    0.101231608    -129.351426    220    4    1.11    0.95;
    140    1    29.23    19.6    0    0    1    1.01206673    -145.403862    220    4    1.11    0.95;
    141    1    0    0    0    0    1    43.7075112    15.0662794    220    4    1.11    0.95;
    142    1    0    0    0    0    1    0.0221725076    -145.435118    220    4    1.11    0.95;
    143    1    0    0    0    0    1    1.82326787    -116.712385    220    4    1.11    0.95;
    144    1    0    0    0    0    1    3.51748282    63.5895737    220    4    1.11    0.95;
    145    1    0    0    0    0    1    40.4712732    157.876772    400    4    1.05    0.95;
    146    1    0    0    0    0    1    40.4712732    157.876772    400    4    1.05    0.95;
    147    1    0    0    0    0    1    10.1553849    -90.3841067    220    4    1.11    0.95;
    148    1    0    0    0    0    1    3.18095556    -163.822494    220    4    1.11    0.95;
    149    1    0    0    0    0    1    71.9939196    13.2062045    220    4    1.11    0.95;
    150    1    0    0    0    0    1    0.0969572636    182.283939    220    4    1.11    0.95;
    151    1    0    0    0    0    1    1.60408344    61.2781503    220    4    1.11    0.95;
    152    1    0    0    0    0    1    46.0447458    143.736115    220    4    1.11    0.95;
    153    1    0    0    0    0    1    46.0447458    143.736115    220    4    1.11    0.95;
    154    1    0    0    0    0    1    54.1365731    -7.64614125    220    4    1.11    0.95;
    155    1    0    0    0    0    1    0.357953503    -83.4451294    220    5    1.11    0.95;
    156    1    0    0    0    0    1    2.80009952    2.82694538    220    5    1.11    0.95;
    157    1    0    0    0    0    1    2.13479474    -119.721123    400    5    1.05    0.95;
    158    1    0    0    0    0    1    0.763772819    20.2137819    400    5    1.05    0.95;
    159    1    0    0    0    0    1    1.7571156    -50.9430151    400    5    1.05    0.95;
    160    1    0    0    0    0    1    1.73524833    -18.7307639    400    5    1.05    0.95;
    161    1    0    0    0    0    1    0.0208842393    -65.868007    220    5    1.11    0.95;
    162    1    0    0    0    0    1    0.207598875    165.32311    220    5    1.11    0.95;
    163    1    0    0    0    0    1    0.239409246    -77.1222009    220    5    1.11    0.95;
    164    1    0    0    0    0    1    0.116008051    99.6203922    220    5    1.11    0.95;
    165    1    0    0    0    0    1    41.2535787    -132.998414    400    5    1.05    0.95;
    166    1    0    0    0    0    1    0.0421786006    53.887716    220    5    1.11    0.95;
    167    1    0    0    0    0    1    0.00931704849    -121.259015    220    5    1.11    0.95;
    168    1    0    0    0    0    1    0.00882772426    106.761503    400    5    1.05    0.95;
    169    1    0    0    0    0    1    0.0186849073    -93.5655061    400    5    1.05    0.95;
    170    1    0    0    0    0    1    1.33996769    20.3158171    220    5    1.11    0.95;
    171    1    0    0    0    0    1    1.20512176    134.753762    220    5    1.11    0.95;
    172    1    0    0    0    0    1    0.19590156    91.5525154    220    5    1.11    0.95;
    173    1    0    0    0    0    1    0.142872317    42.8481645    220    5    1.11    0.95;
    174    1    0    0    0    0    1    0.20757119    -33.0082125    220    5    1.11    0.95;
    175    1    0    0    0    0    1    0.47278282    -97.8921551    220    5    1.11    0.95;
    176    1    0    40    0    0    1    0.0405938576    136.936649    400    5    1.05    0.95;
    177    1    0    40    0    0    1    0.0468805832    -129.543659    400    5    1.05    0.95;
    178    1    0    0    0    0    1    0.231168541    6.66491435    220    5    1.11    0.95;
    179    1    0    0    0    0    1    0.0369401207    116.182951    220    5    1.11    0.95;
    180    3    339.85    49.6    0    0    2    1    6.47007485    400    6    1.05    0.95;
    181    2    0    0    0    0    3    1    -3.7760673    220    6    1.11    0.95;
    182    2    0    0    0    0    5    1    99.9811091    400    6    1.05    0.95;
    183    1    150    0    0    0    3    0.11723257    189.882323    400    6    1.05    0.95;
    184    2    317.34    50.3    0    0    2    1    57.8339617    220    6    1.11    0.95;
    185    2    362.43    36.7    0    0    2    1    152.351502    400    6    1.05    0.95;
    186    2    33.33    1    0    0    5    1    -156.491661    220    6    1.11    0.95;
    187    1    7.12    1.5    0    0    1    3.25352621    121.57456    110    1    1.12    0.95;
    188    1    7.63    1    0    0    1    14.0024921    61.7568625    110    1    1.12    0.95;
    189    1    9.77    8.7    0    0    1    0.0327022766    -96.5249054    110    1    1.12    0.95;
    190    1    6.12    1.5    0    0    1    1.02267417    -54.485708    110    1    1.12    0.95;
    191    1    6.12    1.6    0    0    1    0.184754717    52.4722761    110    1    1.12    0.95;
    192    1    30.56    12    0    0    1    0.0676448806    -56.2603698    110    1    1.12    0.95;
    193    1    15.28    3    0    0    1    26.4345084    -72.6171517    110    1    1.12    0.95;
    194    1    0    0    0    0    1    0.0947986207    -163.107187    110    1    1.12    0.95;
    195    1    8.14    2    0    0    1    0.272704514    -121.324252    110    1    1.12    0.95;
    196    1    6.92    1.5    0    0    1    1.08316213    140.030146    110    1    1.12    0.95;
    197    1    6.92    1.5    0    0    1    1.00273269    -158.347479    110    1    1.12    0.95;
    198    1    12.32    1.7    0    0    1    1.85424037    161.264159    110    1    1.12    0.95;
    199    1    1.43    0.5    0    0    1    0.213597385    73.4922341    110    1    1.12    0.95;
    200    1    1.08    0.5    0    0    1    0.440987739    179.580441    110    1    1.12    0.95;
    201    1    5.61    0.5    0    0    1    21.4722035    -163.660387    110    1    1.12    0.95;
    202    1    18.34    2    0    0    1    26.32576    124.175937    110    1    1.12    0.95;
    203    1    11.1    1.6    0    0    1    0.228237126    191.547835    110    1    1.12    0.95;
    204    1    0    0    0    0    1    0.959147738    2.78354593    110    1    1.12    0.95;
    205    1    6.92    2    0    0    1    0.010820982    97.4190678    110    1    1.12    0.95;
    206    1    11.2    1    0    0    1    0.414617042    14.0896205    110    1    1.12    0.95;
    207    1    7.32    1.6    0    0    1    0.188990973    -120.824754    110    1    1.12    0.95;
    208    1    -7.32    -4.5    0    0    1    60.5215358    -48.0262617    110    1    1.12    0.95;
    209    1    9.36    0.8    0    0    1    0.229411286    -135.636423    110    1    1.12    0.95;
    210    1    15.18    4.4    0    0    1    0.0111618399    48.6659146    110    1    1.12    0.95;
    211    1    8.75    0.2    0    0    1    6.85155551    -139.859898    110    1    1.12    0.95;
    212    1    10.18    1.5    0    0    1    18.2933743    159.348629    110    1    1.12    0.95;
    213    1    -2.04    -1    0    0    1    0.248945466    14.2450064    110    1    1.12    0.95;
    214    1    12.02    0.5    0    0    1    15.5325951    34.7185077    110    1    1.12    0.95;
    215    1    6.92    2    0    0    1    0.0134196439    45.3017754    110    1    1.12    0.95;
    216    1    8.85    0.5    0    0    1    8.37931696    -104.155368    110    1    1.12    0.95;
    217    1    1.94    0.4    0    0    1    0.262901063    179.968282    110    1    1.12    0.95;
    218    1    12.22    1.5    0    0    1    0.882460661    -116.123015    110    1    1.12    0.95;
    219    1    2.55    0.5    0    0    1    9.69020575    132.08285    110    1    1.12    0.95;
    220    1    2.55    0.5    0    0    1    12.7302187    157.403195    110    1    1.12    0.95;
    221    1    4.08    0.5    0    0    1    0.212186951    61.8502967    110    1    1.12    0.95;
    222    1    6.53    0.4    0    0    1    92.7251958    54.2174327    110    1    1.12    0.95;
    223    1    18.65    4    0    0    1    0.144041181    39.2689036    110    1    1.12    0.95;
    224    1    19.86    2.5    0    0    1    0.628270217    126.351729    110    1    1.12    0.95;
    225    1    17.3    2    0    0    1    34.2692368    74.4404021    110    1    1.12    0.95;
    226    1    24.44    1.5    0    0    1    15.6185308    115.046915    110    1    1.12    0.95;
    227    1    5.61    1    0    0    1    5.16819374    73.2740891    110    1    1.12    0.95;
    228    1    11.4    1.1    0    0    1    0.0310611747    -114.716873    110    1    1.12    0.95;
    229    1    11    2.7    0    0    1    0.0348253853    -151.259416    110    1    1.12    0.95;
    230    1    7.63    1    0    0    1    0.128167917    165.366035    110    1    1.12    0.95;
    231    1    7.94    1.1    0    0    1    0.0104898214    122.510496    110    1    1.12    0.95;
    232    1    7.94    1.1    0    0    1    1.75641703    -60.362318    110    1    1.12    0.95;
    233    1    1.84    0.8    0    0    1    29.1199219    -43.1701724    110    1    1.12    0.95;
    234    1    33.46    28    0    0    1    0.0404870744    -143.288447    110    1    1.12    0.95;
    235    1    33.76    28    0    0    1    0.0822293212    113.129157    110    1    1.12    0.95;
    236    1    1.02    0.5    0    0    1    0.140445123    -44.0538777    110    1    1.12    0.95;
    237    1    13.95    1.7    0    0    1    1.1505015    -164.279062    110    1    1.12    0.95;
    238    1    9.98    1    0    0    1    1.84990394    -113.576365    110    1    1.12    0.95;
    239    1    15.28    1.5    0    0    1    0.637567103    -29.9621731    110    1    1.12    0.95;
    240    1    11.2    1.5    0    0    1    0.731389992    -165.154018    110    1    1.12    0.95;
    241    1    10.18    3    0    0    1    0.0560308394    29.6201784    110    1    1.12    0.95;
    242    1    1.22    0.1    0    0    1    0.157454162    122.214837    110    1    1.12    0.95;
    243    1    0    0    0    0    1    0.0127429348    -145.367751    110    1    1.12    0.95;
    244    1    1.02    0    0    0    1    0.0137812161    -91.9984514    110    1    1.12    0.95;
    245    1    12.12    5.4    0    0    1    0.00839666965    -133.263803    110    1    1.12    0.95;
    246    1    -8.14    -3.6    0    0    1    0.0715210613    57.3254202    110    1    1.12    0.95;
    247    1    11.2    1.5    0    0    1    1.36199641    65.5160996    110    1    1.12    0.95;
    248    1    3.06    0.5    0    0    1    0.993207359    31.1712183    110    1    1.12    0.95;
    249    1    9.16    0    0    0    1    6.2857655    -87.4736787    110    1    1.12    0.95;
    250    1    27.71    3    0    0    1    0.159700935    -129.305832    110    1    1.12    0.95;
    251    1    21.38    4    0    0    1    0.00421766672    -148.818067    110    1    1.12    0.95;
    252    1    21.38    4    0    0    1    0.211751232    170.291366    110    1    1.12    0.95;
    253    1    14.87    4.3    0    0    1    0.212787421    -25.1126906    110    1    1.12    0.95;
    254    1    19.86    3.5    0    0    1    0.277747983    177.296601    110    1    1.12    0.95;
    255    1    10.18    1    0    0    1    13.2164444    -111.681453    110    1    1.12    0.95;
    256    1    5.61    0    0    0    1    2.09353146    -48.0385046    110    1    1.12    0.95;
    257    1    7.12    0.2    0    0    1    0.446715342    40.8506716    110    1    1.12    0.95;
    258    1    4.08    0.3    0    0    1    0.223628565    166.73526    110    1    1.12    0.95;
    259    1    20.87    4.2    0    0    1    0.0214916845    27.5769433    110    1    1.12    0.95;
    260    1    10.69    1.5    0    0    1    0.265445628    137.786972    110    1    1.12    0.95;
    261    1    7.94    2    0    0    1    0.0654857116    -135.876285    110    1    1.12    0.95;
    262    1    0.2    0    0    0    1    56.6249526    73.2081753    110    1    1.12    0.95;
    263    1    5.3    1    0    0    1    0.36215806    13.334552    110    1    1.12    0.95;
    264    1    12.22    1    0    0    1    0.075410004    136.505555    110    1    1.12    0.95;
    265    1    12.22    1    0    0    1    0.153276271    -92.0589687    110    1    1.12    0.95;
    266    1    8.34    1.6    0    0    1    1.15803072    -76.7943711    110    1    1.12    0.95;
    267    1    10.38    3    0    0    1    0.0591462464    86.0516906    110    1    1.12    0.95;
    268    1    14.87    3.7    0    0    1    0.0228710962    40.885617    110    1    1.12    0.95;
    269    1    15.28    4    0    0    1    132.492842    18.2440876    110    1    1.12    0.95;
    270    1    3.67    0.5    0    0    1    0.075894336    -158.566507    110    1    1.12    0.95;
    271    1    3.67    0.5    0    0    1    0.0620719    37.5449062    110    1    1.12    0.95;
    272    1    9.26    3    0    0    1    1.03402645    29.0642116    110    1    1.12    0.95;
    273    1    12.93    3.7    0    0    1    0.00852801377    -111.146055    110    1    1.12    0.95;
    274    1    25.67    7.4    0    0    1    0.00556769772    -49.7961366    110    1    1.12    0.95;
    275    1    23.22    6.7    0    0    1    0.116009815    -132.831619    110    1    1.12    0.95;
    276    1    14.26    5.1    0    0    1    0.0962575536    -139.01571    110    1    1.12    0.95;
    277    1    52.14    20.4    0    0    1    0.0389515593    -92.5546687    110    1    1.12    0.95;
    278    1    24.95    9.7    0    0    1    0.0131787493    -48.0682061    110    1    1.12    0.95;
    279    1    24.95    9.7    0    0    1    0.0199410849    179.766057    110    1    1.12    0.95;
    280    1    0    0    0    0    1    0.138591224    62.958084    110    1    1.12    0.95;
    281    1    30.66    11.9    0    0    1    0.0170434542    190.352798    110    1    1.12    0.95;
    282    1    13.14    5.1    0    0    1    0.0118169672    -99.0556055    110    1    1.12    0.95;
    283    1    17.02    0.2    0    0    1    7.24845559    135.120112    110    1    1.12    0.95;
    284    1    2.55    0.5    0    0    1    0.0918837938    -24.8369541    110    1    1.12    0.95;
    285    1    8.14    1.5    0    0    1    0.198828571    90.0049088    110    1    1.12    0.95;
    286    1    29.75    4.1    0    0    1    0.0315750748    12.2707296    110    1    1.12    0.95;
    287    1    12.22    4    0    0    1    0.0196460001    -72.4483039    110    1    1.12    0.95;
    288    1    13.14    3.8    0    0    1    0.0743308648    -123.500411    110    1    1.12    0.95;
    289    1    21.28    6.1    0    0    1    2.03180018    25.7143899    110    1    1.12    0.95;
    290    1    17.32    3    0    0    1    177.669192    122.012092    110    1    1.12    0.95;
    291    1    16.81    5.4    0    0    1    0.00535031056    -42.1954641    110    1    1.12    0.95;
    292    1    17.32    5    0    0    1    0.0696479988    124.473118    110    1    1.12    0.95;
    293    1    7.43    2.1    0    0    1    0.00417143642    -155.373931    110    1    1.12    0.95;
    294    1    15.28    3    0    0    1    14.0365067    107.238511    110    1    1.12    0.95;
    295    1    21.28    3.4    0    0    1    3.00110532    -153.05127    110    1    1.12    0.95;
    296    1    17.63    5.1    0    0    1    0.0128388116    187.101552    110    1    1.12    0.95;
    297    1    8.55    2    0    0    1    1.11212995    -115.287064    110    1    1.12    0.95;
    298    1    7.02    1.6    0    0    1    0.449429148    73.621369    110    1    1.12    0.95;
    299    1    48.06    13.8    0    0    1    0.264201752    -93.6965033    110    1    1.12    0.95;
    300    1    21.38    9    0    0    1    16.3837298    104.843731    110    1    1.12    0.95;
    301    1    6.22    1.3    0    0    1    0.0258494255    -72.606436    110    1    1.12    0.95;