function mpc = case6515rte_resqlim
%CASE6515RTE_RESQLIM

%% MATPOWER Case Format : Version 2
mpc.version = '2';

%%-----  Power Flow Data  -----%%
%% system MVA base
mpc.baseMVA = 100;

%% bus data
%	bus_i	type	Pd	Qd	Gs	Bs	area	Vm	Va	baseKV	zone	Vmax	Vmin
mpc.bus = [
	1	1	0	0	0	0	1	0.992597004	-12.6827757	45	1	1	0.888889;
	2	1	0	0	0	0	1	1.02538801	-9.63993441	63	1	1.06349	0.936508;
	3	1	14.8	3.8	0	0	1	1.0085357	-17.0376989	63	1	1.07937	0.952381;
	4	1	49.6	2.8	0	0	1	1.02408976	-30.2058595	90	1	1.08889	0.933333;
	5	1	12.9	0.9	0	0	1	1.00781119	-61.7650605	63	1	1.06349	0.952381;
	6	1	13	5.3	0	0	1	1.02968613	-21.7340745	63	1	1.07937	0.920635;
	7	1	2.3	0.2	0	0	1	1.04612137	-23.1908357	63	1	1.07937	0.920635;
	8	1	15.8	-0.3	0	0	1	1.04137695	-22.5190746	225	1	1.08889	0.888889;
	9	1	14.9	0	0	0	1	1.04106074	-20.1129204	63	1	1.06349	0.936508;
	10	1	0	0	0	0	1	1.01310406	-29.0081553	90	1	1.07778	0.922222;
	11	1	33.2	4.9	0	0	1	1.01310384	-29.0081528	90	1	1.07778	0.922222;
	12	1	0	0	0	0	1	1.01481977	-3.5413976	63	1	1.07937	0.952381;
	13	1	0	0	0	0	1	1.06079044	-5.37467874	380	1	1.10263	1.05271;
	14	1	63.2	13.3	0	30.4	1	1.05499619	-38.5672053	90	1	1.07778	0.977778;
	15	1	0	0	0	0	1	1.01552466	-25.0558802	63	1	1.07937	0.920635;
	16	1	13.9	1.9	0	0	1	1.02743012	-28.7704572	63	1	1.07937	0.920635;
	17	1	10.9	0.1	0	0	1	1.04114467	-35.3795658	90	1	1.06667	0.977778;
	18	1	0	0	0	0	1	0.93894937	-6.38230708	45	1	1	0.888889;
	19	1	1	0	0	0	1	1.01899327	-23.9431728	63	1	1.06349	0.936508;
	20	1	5.6	-18	0	0	1	0.939682717	-6.4215533	45	1	1	0.888889;
	21	1	7.6	-1.6	0	0	1	1.02279543	-23.175172	90	1	1.06667	0.977778;
	22	1	18.5	1	0	0	1	1.00614884	-18.1020754	63	1	1.07937	0.952381;
	23	1	22.4	2.2	0	0	1	1.01976275	-11.3375134	63	1	1.06349	0.936508;
	24	1	17	-1.5	0	0	1	1.0260993	-28.7599101	90	1	1.11111	0.955556;
	25	1	54.7	-1.1	0	0	1	1.06176463	-24.7939826	90	1	1.1	0.944444;
	26	1	15.1	10.6	0	0	1	1.01861525	-30.4344367	90	1	1.06667	0.977778;
	27	1	0	0	0	0	1	1.05586485	-25.5568031	225	1	1.08444	1.00444;
	28	1	0.9	-0.2	0	0	1	1.01872286	-24.2529881	63	1	1.07937	0.952381;
	29	1	76.5	9.4	0	0	1	0.992055521	-26.1364321	63	1	1.06349	0.968254;
	30	1	39.9	3.5	0	0	1	1.01598655	-29.3211508	90	1	1.08889	0.933333;
	31	1	0	0	0	0	1	1.0432948	-10.2149326	63	1	1.06349	0.936508;
	32	1	0	0	0	0	1	1.04830522	-5.01906075	150	1	1.10667	0.9;
	33	1	0	0	0	0	1	1.058672	-7.37911849	225	1	1.08889	0.933333;
	34	1	0	0	0	0	1	1.05576022	-6.72043314	225	1	1.08889	0.933333;
	35	1	0	0	0	0	1	1.07213684	-6.11749276	380	1	1.10526	1.03947;
	36	1	0	0	0	0	1	1.07551436	-5.13587119	380	1	1.10526	1.03947;
	37	1	-2.7	3	0	0	1	1.0129671	-27.0210945	63	1	1.07937	0.920635;
	38	1	5	-1	0	0	1	1.02790449	-25.7302712	63	1	1.09524	0.936508;
	39	1	43.6	-2.9	0	0	1	1.01458533	-46.1131807	90	1	1.07778	0.977778;
	40	1	38.1	4.1	0	0	1	1.04788501	-36.7039102	90	1	1.07778	0.977778;
	41	1	0	0	0	0	1	1.05907675	-31.0364475	225	1	1.08889	1.00444;
	42	1	0	0	0	0	1	1.1230738	0.327157188	63	1	1.13099	0.952381;
	43	1	3.2	2.7	0	0	1	1.03299586	-32.9048182	90	1	1.07778	0.977778;
	44	1	13.3	0.1	0	0	1	1.02313911	-57.427984	63	1	1.06349	0.952381;
	45	1	3.8	1.6	0	0	1	1.01331577	-39.9117761	90	1	1.06667	0.977778;
	46	1	0	0	0	0	1	1.02983314	-16.9867905	63	1	1.06349	0.936508;
	47	1	-1.77635684e-15	0	0	0	1	1.02787069	-13.006679	63	1	1.06349	0.936508;
	48	1	40.4	5.6	0	0	1	1.01517079	-30.3434913	90	1	1.07778	0.922222;
	49	1	9.8	-1.9	0	0	1	1.02393222	-18.3153164	63	1	1.06349	0.936508;
	50	1	0	0	0	0	1	1.06629028	-15.7320985	63	1	1.06927	0.936508;
	51	1	0	0	0	0	1	1.05397371	-10.7554994	225	1	1.08889	0.933333;
	52	1	6.5	2.9	0	0	1	1.02643094	-41.9466704	90	1	1.06667	0.977778;
	53	1	0	-1.3	0	0	1	0.990390192	-33.0680811	63	1	1.04762	0.952381;
	54	1	0.3	-0.3	0	0	1	1.03174807	-22.157596	90	1	1.06667	0.977778;
	55	1	50.9	12.3	0	0	1	1.06610225	-34.4913424	225	1	1.08889	1.00444;
	56	1	75.5	20.5	0	0	1	1.05460143	-29.7286476	225	1	1.08889	1.00444;
	57	1	0	0	0	0	1	1.05373944	-19.9993741	63	1	1.07937	0.920635;
	58	1	154	36.4	0	0	1	1.06595631	-34.5086421	225	1	1.08889	1.00444;
	59	1	5	1	0	0	1	1.0279794	-15.2317376	63	1	1.07937	0.952381;
	60	1	0	0	0	0	1	1.03363361	-9.81615711	63	1	1.07937	0.952381;
	61	1	46.3	11.9	0	0	1	1.03454749	-11.4031658	63	1	1.07937	0.952381;
	62	1	0	0	0	0	1	1.02039739	-9.78391609	63	1	1.07937	0.952381;
	63	1	16.8	2.9	0	0	1	1.01115827	-4.11118404	63	1	1.07937	0.952381;
	64	1	67.3	7.1	0	0	1	1.05440082	-22.2298185	225	1	1.08889	0.888889;
	65	1	12	2.8	0	0	1	1.04654119	-12.0356126	63	1	1.07937	0.952381;
	66	1	13	-6.4	0	0	1	1.02690916	-27.6256958	63	1	1.06349	0.936508;
	67	1	1	0	0	0	1	1.03869247	-23.4247179	63	1	1.07937	0.920635;
	68	1	53.1	1.1	0	0	1	1.01360386	-16.9220066	63	1	1.06349	0.936508;
	69	1	20.8	1.3	0	0	1	1.04078665	-62.3747425	63	1	1.06349	0.952381;
	70	1	10.6	4.2	0	0	1	1.0250585	-2.42718714	63	1	1.07937	0.952381;
	71	1	69.4	17.5	0	0	1	1.00977917	-33.2327367	63	1	1.04762	0.952381;
	72	1	0	0	0	0	1	1.07657728	-26.4919196	225	1	1.08889	1.00444;
	73	1	0	0	0	0	1	1.07658867	-26.4912239	225	1	1.08889	1.00444;
	74	1	58.8	-5	0	0	1	1.054945	-22.0687138	225	1	1.08889	0.888889;
	75	1	25.2	1.9	0	0	1	1.03792859	-25.764208	90	1	1.06667	0.977778;
	76	1	5.9	-2.1	0	0	1	1.07664168	-0.582229486	225	1	1.08889	0.986667;
	77	1	43.7	0.4	0	0	1	1.01508562	-18.5372004	63	1	1.06349	0.936508;
	78	1	0	0	0	0	1	1.03656989	-25.9107621	63	1	1.07937	0.920635;
	79	1	0	0	0	0	1	1.00480259	-32.038361	63	1	1.04762	0.952381;
	80	1	32.4	10.5	0	0	1	1.03510719	-31.5796786	225	1	1.08889	1.00444;
	81	1	32.4	9.1	0	0	1	1.0351259	-31.5796303	225	1	1.08889	1.00444;
	82	1	11.3	0.3	0	0	1	1.0250029	-19.6020396	63	1	1.06349	0.936508;
	83	1	79	24.8	0	0	1	1.04414768	-32.1624948	225	1	1.08889	1.00444;
	84	1	-0.1	0.4	0	0	1	1.01618669	-14.1628785	63	1	1.06349	0.936508;
	85	1	0.7	-1.5	0	0	1	1.04048473	-17.9585249	63	1	1.06349	0.936508;
	86	1	48.8	5.2	0	0	1	1.0155843	-49.8195531	90	1	1.06667	0.977778;
	87	1	0	0	0	0	1	1.02321968	-4.13191591	63	1	1.07937	0.952381;
	88	1	14.8	-1.2	0	0	1	1.03609541	-21.9054605	63	1	1.06349	0.936508;
	89	1	26.2	0.3	0	0	1	1.02731692	-35.6449524	90	1	1.07778	0.977778;
	90	1	0.2	-2.3	0	0	1	0.943150351	-7.09765489	45	1	1	0.888889;
	91	1	0	0	0	0	1	0.93894937	-6.38230708	45	1	1	0.888889;
	92	1	31.8	1.1	0	0	1	1.00876041	-21.1175161	63	1	1.06349	0.968254;
	93	1	2	-2.8	0	0	1	0.954375712	-8.7864417	45	1	1	0.888889;
	94	1	18.2	-4	0	0	1	1.03452478	-29.2002129	90	1	1.06667	0.977778;
	95	1	57.2	9.4	0	0	1	1.02264991	-41.7823294	90	1	1.06667	0.977778;
	96	1	0.9	-0.2	0	0	1	1.05009844	-10.3141626	63	1	1.06349	0.936508;
	97	1	57.7	3.8	0	0	1	1.06300563	-23.0205119	63	1	1.07937	0.920635;
	98	1	9.5	1	0	0	1	1.01783028	-23.467899	63	1	1.07937	0.952381;
	99	1	35.8	5.9	0	0	1	1.04166341	-11.0847412	63	1	1.07937	0.952381;
	100	1	63	7.8	0	0	1	1.01939287	-16.5674577	63	1	1.06349	0.936508;
	101	1	17.3	-0.8	0	0	1	1.00715772	-15.2537242	63	1	1.06349	0.936508;
	102	3	0	0	0	0	1	1.033	-17.3534814	63	1	1.07937	0.952381;
	103	1	12.6	-1.2	0	0	1	1.03378389	-10.0859296	63	1	1.07937	0.952381;
	104	1	0	0	0	0	1	1.06869633	-7.08828154	225	1	1.08889	0.986667;
	105	1	36.9	2.2	0	0	1	1.03562986	-20.5251507	225	1	1.08889	0.888889;
	106	1	58.2	10.7	0	0	1	1.04508612	-25.5436272	90	1	1.1	0.944444;
	107	1	107	14.3	0	0	1	1.03686603	-31.4155092	225	1	1.08444	1.00889;
	108	1	12.2	-2.4	0	0	1	1.04550216	-31.0095837	90	1	1.07778	0.977778;
	109	1	67.8	8.7	0	0	1	1.03900016	-13.8180781	63	1	1.06349	0.936508;
	110	1	0	0	0	0	1	1.02632031	-9.84540367	225	1	1.08889	0.933333;
	111	1	38.7	-7.5	0	0	1	0.999767092	-23.7130085	63	1	1.06349	0.968254;
	112	1	0	0	0	0	1	1.00789266	-32.5972599	63	1	1.04762	0.952381;
	113	1	0	0	0	0	1	1.04137101	-28.9456405	225	1	1.08889	1.00444;
	114	1	13.4	1.1	0	0	1	1.05148506	-13.8544187	63	1	1.06349	0.936508;
	115	1	0	0	0	0	1	1.06079963	-5.37476213	380	1	1.10526	1.05263;
	116	1	0	0	0	0	1	1.06079963	-5.37476213	380	1	1.10526	1.05263;
	117	1	14.9	0.2	0	0	1	1.01439576	-21.9237564	63	1	1.07937	0.952381;
	118	1	2	0.7	0	0	1	1.04032675	-25.4492444	90	1	1.06667	0.977778;
	119	1	40.6	6.9	0	0	1	1.00727897	-12.1448364	63	1	1.06349	0.936508;
	120	1	22	-2.3	0	0	1	1.02702842	-10.5141924	63	1	1.06349	0.936508;
	121	1	20.8	1.4	0	0	1	1.01845409	-28.3072398	63	1	1.07937	0.920635;
	122	2	0	0	0	0	1	1.026	-11.3396228	63	1	1.07937	0.952381;
	123	1	12	4.6	0	0	1	1.02341291	-11.4700019	63	1	1.07937	0.952381;
	124	1	8	-0.4	0	0	1	1.03010509	-31.9188166	90	1	1.06667	0.977778;
	125	1	11.1	0.4	0	0	1	1.02404818	-17.4703786	63	1	1.07937	0.952381;
	126	1	0.2	0.8	0	0	1	1.04155086	-18.0311483	63	1	1.06349	0.936508;
	127	1	14.7	2.7	0	0	1	1.00522531	-34.6707692	63	1	1.04762	0.952381;
	128	1	13.8	7.2	0	0	1	1.02415837	-13.3027432	63	1	1.06349	0.968254;
	129	1	19.1	10.8	0	0	1	1.02223185	-11.5357808	63	1	1.06349	0.968254;
	130	1	0	0	0	0	1	1.04909418	-10.6055544	225	1	1.08444	1.00889;
	131	1	119.3	12	0	0	1	1.04738842	-19.1523791	225	1	1.08444	1.00889;
	132	2	9.4	0	0	0	1	1.061	-17.2694505	90	1	1.07778	0.922222;
	133	1	2.7	0.4	0	0	1	0.97647812	-35.5779611	63	1	1.04762	0.952381;
	134	1	101.1	27.4	0	0	1	1.0186541	-32.2380596	225	1	1.08889	1.00444;
	135	1	0	0	0	0	1	1.06697463	-34.3141293	225	1	1.08889	1.00444;
	136	1	23.9	1.4	0	0	1	1.02765713	-45.055699	90	1	1.07778	0.977778;
	137	1	8.7	-3	0	0	1	1.022358	-13.6327079	63	1	1.06349	0.968254;
	138	1	0	0	0	0	1	1.05300439	-11.7088347	150	1	1.08	0.966667;
	139	1	8	7.1	0	0	1	1.04608709	-14.7822703	63	1	1.07937	0.920635;
	140	1	0	0	0	80	1	1.07606688	-11.5520314	225	1	1.08889	1;
	141	1	0	0	0	0	1	1.08733637	-8.18355054	380	1	1.10526	1.05263;
	142	1	22.4	7.4	0	0	1	1.03199189	-14.7440226	63	1	1.07937	0.952381;
	143	1	0	0	0	0	1	1.06274862	-9.81298929	225	1	1.08889	0.986667;
	144	1	16	5	0	0	1	1.0330789	-26.7321881	90	1	1.11111	0.955556;
	145	1	23.4	9	0	0	1	1.05608218	-21.9543835	225	1	1.08889	0.968889;
	146	1	0	0	0	0	1	1.07095586	-18.7372119	380	1	1.10526	1;
	147	1	30	5.5	0	0	1	1.04358849	-15.9211507	63	1	1.06349	0.936508;
	148	1	6.6	1.2	0	0	1	1.03739299	-13.0611391	63	1	1.06349	0.936508;
	149	1	16.9	4.1	0	0	1	1.03278779	-41.1124099	90	1	1.06667	0.977778;
	150	1	48.5	3.2	0	0	1	1.04116077	-10.702953	63	1	1.06349	0.936508;
	151	1	0	0	0	0	1	0.980713124	-26.7816013	63	1	1.06349	0.968254;
	152	1	45.3	12	0	7.7	1	0.980565342	-25.5273326	63	1	1.06349	0.968254;
	153	1	27.3	-5.5	0	0	1	1.04046199	-13.1012833	63	1	1.06349	0.936508;
	154	1	0	0	0	0	1	1.06517586	-9.66355942	225	1	1.08889	0.933333;
	155	2	0	0	0	0	1	1.02936051	-20.0294296	63	1	1.07937	0.920635;
	156	1	0	0	0	0	1	0.980662319	-26.7865775	63	1	1.06349	0.968254;
	157	1	0	-2.2	0	0	1	0.935356531	-10.3803193	45	1	1	0.888889;
	158	2	0	0	0	0	1	0.959	-8.66440314	45	1	1	0.888889;
	159	1	0	0	0	0	1	1.0371815	-13.3082616	63	1	1.06349	0.936508;
	160	1	41.7	5.9	0	0	1	1.044473	-18.970275	225	1	1.08889	0.888889;
	161	1	43.7	10	0	0	1	1.04428836	-18.9741641	225	1	1.08889	0.888889;
	162	1	-0.3	-1.6	0	0	1	1.01306543	-30.1832099	90	1	1.06667	0.977778;
	163	1	0	0	0	0	1	1.02787805	-10.5692705	63	1	1.07937	0.952381;
	164	1	0	0	0	0	1	1.02787805	-10.5692705	63	1	1.07937	0.952381;
	165	1	16.5	14.6	0	0	1	1.05882574	-36.1909654	20	1	1.15	0.8;
	166	1	13.3	3.2	0	0	1	1.03343219	-40.6634775	90	1	1.06667	0.977778;
	167	1	17.8	-0.8	0	0	1	1.02883923	-41.1323048	90	1	1.06667	0.977778;
	168	1	0	0	0	0	1	1.05895333	-36.184506	225	1	1.08444	1.00444;
	169	1	9.9	-0.9	0	0	1	1.01941305	-34.5269143	90	1	1.06667	0.977778;
	170	1	79.8	13.5	0	0	1	1.02283751	-34.9489154	90	1	1.07778	0.977778;
	171	1	28	0.8	0	30	1	1.03965803	-39.0178541	90	1	1.07778	0.977778;
	172	1	0	0	0	0	1	1.04576816	-34.4042222	225	1	1.08889	1.00444;
	173	1	28.5	8	0	0	1	1.05859675	-23.6877309	90	1	1.08889	0.933333;
	174	1	59.7	11.6	0	0	1	1.05584127	-26.414496	90	1	1.11111	0.955556;
	175	1	0	0	0	0	1	1.03785771	-18.6006573	63	1	1.07937	0.920635;
	176	2	0	0	0	0	1	1.09583038	-16.7641865	150	1	1.1	0.9;
	177	1	0	0	0	0	1	1.06126677	-30.8742731	225	1	1.08889	1.00444;
	178	1	0	0	0	0	1	1.06126699	-30.8742743	225	1	1.08889	1.00444;
	179	1	0	0	0	0	1	1.00542693	-34.6564646	63	1	1.04762	0.952381;
	180	1	0	0	0	0	1	1.06126549	-30.8742662	225	1	1.08889	1.00444;
	181	1	12.7	-5.3	0	0	1	1.05422033	-25.3422957	63	1	1.07937	0.920635;
	182	1	16	3.1	0	0	1	1.03857644	-10.9244734	63	1	1.06349	0.936508;
	183	1	5.5	-1.7	0	0	1	1.0242271	-22.6520767	63	1	1.07937	0.952381;
	184	1	5	1.4	0	0	1	1.0620548	-32.9797199	90	1	1.07778	0.977778;
	185	1	30.6	2.7	0	0	1	1.02269745	-15.6791229	63	1	1.07937	0.952381;
	186	1	1.2	0.2	0	0	1	1.02303317	-28.5280727	90	1	1.06667	0.977778;
	187	2	0	0	0	0	1	1.0484206	-20.3510375	63	1	1.07937	0.920635;
	188	1	0	0	0	0	1	1.09852796	-18.9274477	63	1	1.09875	0.920635;
	189	1	16.8	1.8	0	0	1	1.036543	-23.8844426	63	1	1.07937	0.920635;
	190	2	0	0	0	0	1	0.953092399	-8.10868081	45	1	1	0.888889;
	191	1	15.4	-1.1	0	0	1	1.01972264	-34.4589385	90	1	1.06667	0.977778;
	192	1	9.9	-0	0	0	1	1.05405605	-20.4805384	63	1	1.07937	0.920635;
	193	1	0.1	0.7	0	0	1	1.04155014	-29.4859975	225	1	1.08889	1.00444;
	194	1	0.7	-1.6	0	0	1	1.04739774	-24.5531503	63	1	1.07937	0.920635;
	195	1	0	0	0	0	1	1.04447777	-32.3311278	63	1	1.06362	0.952381;
	196	1	0	0	0	0	1	1.04447919	-32.3311704	63	1	1.06362	0.952381;
	197	1	27.5	-0.6	0	15	1	1.01387863	-32.1103869	63	1	1.07937	0.920635;
	198	1	11.1	-0.8	0	0	1	1.01964497	-22.9032704	63	1	1.07937	0.920635;
	199	1	12.6	2.7	0	0	1	1.01710046	-48.2576325	90	1	1.06667	0.977778;
	200	1	0	0	0	0	1	1.0831455	-22.9575111	225	1	1.08889	1;
	201	1	81	25.6	0	0	1	1.03226229	-20.8836941	225	1	1.08889	0.888889;
	202	1	49.8	2	0	0	1	0.988280988	-31.7933	63	1	1.06349	0.968254;
	203	1	28.6	3.7	0	0	1	1.05379836	-21.1202594	90	1	1.1	0.944444;
	204	1	0	0	0	0	1	1.06259471	-17.4887587	225	1	1.08889	0.968889;
	205	1	0	0	0	0	1	1.08047342	-13.7815893	380	1	1.10526	1;
	206	1	54.4	9.9	0	0	1	1.00018795	-28.9806812	63	1	1.06349	0.968254;
	207	1	33.9	4.5	0	0	1	0.99853378	-14.2918685	63	1	1.06349	0.968254;
	208	1	16.6	-0.8	0	0	1	1.02882166	-31.308379	90	1	1.07778	0.977778;
	209	1	2.2	1.1	0	0	1	1.01736493	-21.5449375	63	1	1.06349	0.968254;
	210	1	41.5	6.3	0	0	1	1.00092284	-17.8716702	63	1	1.06349	0.968254;
	211	1	32.5	14	0	0	1	1.00084701	-17.7336405	63	1	1.06349	0.968254;
	212	1	0	0	0	0	1	1.04564544	-17.666255	225	1	1.08444	1.00889;
	213	1	0	0	0	0	1	1.04553605	-17.6538106	225	1	1.08444	1.00889;
	214	1	43.1	4.5	0	30.4	1	1.04552462	-40.7863412	90	1	1.07778	0.977778;
	215	1	0	0	0	0	1	1.04775914	-36.6417125	225	1	1.08889	1.00444;
	216	1	21.1	-3.5	0	0	1	0.997201787	-20.9334911	63	1	1.06349	0.952381;
	217	1	31.1	2.7	0	0	1	1.0047719	-36.4111799	90	1	1.06667	0.977778;
	218	1	3.3	-0.4	0	0	1	1.03158637	-22.1491018	90	1	1.06667	0.977778;
	219	1	11.1	-4.9	0	0	1	1.04659671	-32.4790011	90	1	1.06667	0.977778;
	220	1	14.8	3.5	0	0	1	1.02296191	-4.15732252	63	1	1.07937	0.952381;
	221	1	13	-6.8	0	0	1	1.03507614	-20.1334291	63	1	1.06349	0.936508;
	222	1	0	0	0	0	1	1.08653255	-16.8027222	225	1	1.08975	0.933333;
	223	1	42.4	2.2	0	0	1	1.02127834	-26.414872	63	1	1.07937	0.920635;
	224	2	0	0	0	0	1	1.09578042	-16.7632144	150	1	1.1	0.9;
	225	1	76.8	16.6	0	0	1	1.05330504	-17.3480491	225	1	1.08444	1.00889;
	226	1	77.8	71.5	0	0	1	1.05242591	-17.340007	225	1	1.08444	1.00889;
	227	1	5	-1.9	0	0	1	1.00388849	-65.3429335	63	1	1.06349	0.952381;
	228	1	10.9	-2	0	0	1	0.999777128	-65.8895615	63	1	1.06349	0.952381;
	229	1	12	-5	0	0	1	1.05956643	-20.9957148	63	1	1.07937	0.920635;
	230	1	0	0	0	0	1	1.05370244	-17.5645977	225	1	1.08889	0.977778;
	231	1	7	-1.4	0	0	1	1.02109584	-33.6682503	90	1	1.06667	0.977778;
	232	1	7.2	0.1	0	0	1	1.02146014	-17.5109688	90	1	1.08889	0.933333;
	233	1	0	0	0	0	1	1.05438047	-20.0679601	20	1	1.15	0.8;
	234	1	24.7	8.1	0	0	1	1.05438047	-20.0679601	90	1	1.08889	0.933333;
	235	1	17.7	3.3	0	0	1	1.06297698	-16.3840933	225	1	1.08889	0.888889;
	236	1	28.6	1	0	0	1	1.03138477	-28.7587121	90	1	1.07778	0.922222;
	237	1	43.7	5.2	0	0	1	1.04256051	-12.4060424	63	1	1.06349	0.936508;
	238	1	25.2	-1.7	0	0	1	1.03061833	-33.1893403	90	1	1.06667	0.977778;
	239	1	53.9	4.3	0	0	1	1.02433827	-66.4868688	63	1	1.06349	0.952381;
	240	1	51.1	9.5	0	0	1	1.03663305	-25.9069999	63	1	1.07937	0.920635;
	241	1	56.7	9.4	0	0	1	1.0070471	-27.5537806	90	1	1.07778	0.922222;
	242	1	56.2	8.6	0	0	1	0.991038054	-28.2066403	63	1	1.06349	0.968254;
	243	1	26.7	-2.3	0	0	1	1.01542928	-28.502698	63	1	1.07937	0.920635;
	244	1	58	3.7	0	0	1	1.05013248	-17.9766434	90	1	1.07778	0.922222;
	245	1	13.7	-2.2	0	0	1	1.02211905	-30.0682816	63	1	1.07937	0.920635;
	246	2	13.7	7.5	0	0	1	1.0249646	-5.80433324	63	1	1.06349	0.936508;
	247	1	0	0	0	0	1	1.05554203	-3.9505241	225	1	1.08889	0.933333;
	248	1	33.4	13.1	0	0	1	1.05331134	-29.9927817	225	1	1.08889	1.00444;
	249	1	26.1	0.9	0	0	1	1.03117595	-28.1950591	63	1	1.07937	0.920635;
	250	1	27.4	-9.4	0	0	1	1.00144234	-26.3555123	63	1	1.07937	0.952381;
	251	1	10.6	3.5	0	0	1	1.02606645	-39.9884064	90	1	1.06667	0.977778;
	252	1	9.6	-1.8	0	0	1	1.02267435	-29.0717598	90	1	1.06667	0.977778;
	253	1	54.1	5.3	0	0	1	1.02167478	-23.9878236	63	1	1.07937	0.952381;
	254	1	20	1.9	0	0	1	1.02380382	-23.7354867	63	1	1.07937	0.952381;
	255	1	9.5	-0.2	0	0	1	1.02102812	-22.5861702	63	1	1.06349	0.936508;
	256	2	1.8	0	0	0	1	1.047	-22.3509698	63	1	1.07937	0.920635;
	257	1	0	0	0	0	1	1.08011614	-23.0605217	225	1	1.08889	1;
	258	1	0	0	0	0	1	1.07768953	-13.7834343	90	1	1.07778	0.922222;
	259	1	33	-2.2	0	0	1	1.0307488	-21.8561864	63	1	1.07937	0.952381;
	260	1	0	0	0	0	1	1.06019055	-19.5767998	225	1	1.08889	0.986667;
	261	2	0	0	0	0	1	1.03645689	-28.7253171	63	1	1.07937	0.920635;
	262	1	0	0	0	80	1	1.05209261	-17.7380439	225	1	1.08889	0.888889;
	263	1	0	0	0	0	1	1.03769515	-19.7376132	225	1	1.08889	0.888889;
	264	1	0	0	0	0	1	1.05255739	-13.7611665	380	1	1.10526	1.01316;
	265	1	0	0	0	0	1	0.983688164	-34.1031758	63	1	1.04762	0.952381;
	266	1	32.5	7.6	0	0	1	1.04878099	-30.1355151	225	1	1.08889	1.00444;
	267	1	66.3	12.7	0	0	1	1.03422994	-31.763258	225	1	1.08889	1.00444;
	268	1	12.2	10.9	0	0	1	0.996653118	-20.1606254	63	1	1.07937	0.920635;
	269	1	23.2	1.1	0	0	1	1.00519363	-31.5798706	63	1	1.07937	0.920635;
	270	1	0	0	0	0	1	1.04246365	-12.2986795	225	1	1.08889	0.977778;
	271	1	0	0	0	0	1	1.04262235	-12.2992931	225	1	1.08889	0.977778;
	272	1	45.8	4.3	0	0	1	1.02121981	-17.8142244	63	1	1.06349	0.968254;
	273	1	28.5	3.5	0	0	1	1.03938113	-13.1657063	225	1	1.08444	1.00889;
	274	1	54.5	9.1	0	0	1	1.05645972	-26.3235697	90	1	1.1	0.944444;
	275	1	0	0	0	0	1	1.06927526	-31.3741497	225	1	1.08444	1.00444;
	276	1	0	0	0	0	1	1.08640054	-25.3486439	380	1	1.10263	1.04211;
	277	1	3.7	2.3	0	0	1	1.03893656	-34.3825339	90	1	1.06667	0.977778;
	278	1	1.5	4.6	0	0	1	1.06895249	-31.4334727	225	1	1.08444	1.00444;
	279	1	11	-2.1	0	0	1	1.01824794	-23.7145896	63	1	1.06349	0.936508;
	280	1	44	14.3	0	0	1	1.03068762	-41.0158961	90	1	1.07778	0.977778;
	281	1	12.8	0.9	0	0	1	1.00564436	-19.703323	63	1	1.07937	0.952381;
	282	2	0	0	0	0	1	1.0249651	-5.80434479	63	1	1.06349	0.936508;
	283	1	12.1	-0.2	0	0	1	1.02144277	-42.0499011	90	1	1.06667	0.977778;
	284	1	16.8	4.6	0	0	1	1.01569694	-3.06485203	63	1	1.07937	0.952381;
	285	1	-1.7	4.6	0	0	1	1.0555588	-29.5496147	225	1	1.08889	1.00444;
	286	1	32.2	20.5	0	0	1	1.05537361	-29.5651545	225	1	1.08889	1.00444;
	287	1	35.7	-2.3	0	0	1	1.03165021	-30.260333	90	1	1.06667	0.977778;
	288	1	36.8	-2.8	0	0	1	1.03665705	-35.7063554	90	1	1.06667	0.977778;
	289	1	43.6	9.7	0	0	1	1.0696524	-3.94614052	225	1	1.08889	0.888889;
	290	1	7.3	3.7	0	0	1	1.05934453	-18.9225715	90	1	1.11111	0.955556;
	291	1	15.8	0.3	0	0	1	1.02122283	-26.0873496	63	1	1.07937	0.920635;
	292	1	1	0.5	0	0	1	1.0286397	-14.2760746	63	1	1.06349	0.936508;
	293	1	45.4	2.3	0	0	1	1.0286958	-14.2728264	63	1	1.06349	0.936508;
	294	1	0	-0.9	0	0	1	1.02721761	-15.8337014	63	1	1.07937	0.952381;
	295	1	23.4	4.5	0	0	1	1.0419734	-21.7380027	225	1	1.08889	0.888889;
	296	1	6.9	0.3	0	0	1	1.00625521	-21.8278848	63	1	1.07937	0.952381;
	297	1	2	-0.5	0	0	1	0.998244368	-21.9751154	63	1	1.06349	0.936508;
	298	1	13.9	-0	0	0	1	0.99667319	-9.22376599	63	1	1.06349	0.936508;
	299	1	0	0.1	0	0	1	1.0573011	-18.979965	90	1	1.11111	0.955556;
	300	1	53.5	16.6	0	0	1	1.06179947	-16.2197821	225	1	1.08889	0.888889;
	301	1	3	0.3	0	0	1	0.997246801	-14.952433	63	1	1.06349	0.968254;
	302	1	16.3	3.5	0	0	1	1.02860822	-13.4639396	63	1	1.06349	0.936508;
	303	1	42.3	12	0	0	1	0.98532354	-34.8963766	63	1	1.07937	0.920635;
	304	1	36.7	-0.5	0	0	1	0.994500178	-25.9015665	63	1	1.06349	0.968254;
	305	2	0	0	0	0	1	1.04943506	-17.9993601	63	1	1.06349	0.936508;
	306	1	14.5	-1.1	0	0	1	1.0056845	-20.0006371	63	1	1.07937	0.952381;
	307	1	21.4	-2.4	0	0	1	0.999479516	-49.1040233	90	1	1.06667	0.977778;
	308	1	0.6	0.2	0	0	1	1.03846249	-26.6371783	63	1	1.07937	0.920635;
	309	1	7	2.5	0	0	1	1.02860425	-31.3654721	63	1	1.06349	0.968254;
	310	1	13	4.5	0	0	1	1.02875557	-31.3954725	63	1	1.06349	0.968254;
	311	1	1.3	-0	0	0	1	0.988691987	-35.9551027	90	1	1.06667	0.977778;
	312	1	2	-2.6	0	0	1	1.00972873	-14.70092	90	1	1.07778	0.922222;
	313	1	32	2.4	0	0	1	1.03511368	-24.9832434	63	1	1.07937	0.920635;
	314	1	0	0	0	0	1	1.06713473	-21.0986965	225	1	1.08889	1;
	315	1	21.5	-0.1	0	0	1	1.06108741	-33.1464255	90	1	1.07778	0.977778;
	316	1	35.3	2.4	0	0	1	1.02292786	-28.3472308	63	1	1.07937	0.920635;
	317	2	0	0	0	0	1	1.05471027	-21.2096473	63	1	1.07937	0.920635;
	318	1	13.7	4.8	0	0	1	1.00292897	-33.1358134	63	1	1.04762	0.952381;
	319	2	0	0	0	0	1	1.03626806	-27.2401344	63	1	1.07937	0.920635;
	320	1	36.6	2.7	0	0	1	1.04367811	-24.1560224	90	1	1.1	0.944444;
	321	1	0	0	0	0	1	1.04595698	-24.8798644	63	1	1.07937	0.920635;
	322	1	0	0	0	0	1	1.03504418	-14.6722091	225	1	1.08889	1;
	323	1	0	0	0	0	1	1.07338679	-14.6251868	380	1	1.10526	1.05232;
	324	1	28.5	5.3	0	0	1	1.02351718	-9.94628906	63	1	1.06349	0.936508;
	325	2	18	9.6	0	0	1	1.02905465	-15.3179264	63	1	1.06349	0.936508;
	326	1	11.7	19.8	0	0	1	1.03728842	-21.8901246	63	1	1.07937	0.920635;
	327	1	0	0	0	0	1	1.04419123	-18.5263391	225	1	1.08889	1;
	328	1	39.4	2.5	0	0	1	1.01875962	-23.9980493	63	1	1.07937	0.920635;
	329	1	74.3	5.1	0	0	1	1.05193026	-24.8027246	90	1	1.1	0.944444;
	330	1	84.5	7.7	0	0	1	1.05126895	-25.9405465	63	1	1.07937	0.920635;
	331	1	0	0	0	0	1	1.06715238	-21.4941094	225	1	1.08889	1;
	332	2	9.2	-0.9	0	0	1	1.01955393	-35.0055705	63	1	1.06349	0.968254;
	333	2	0	0	0	0	1	1.04194389	-27.4187907	150	1	1.08	0.966667;
	334	1	7.4	-2.8	0	0	1	1.03703721	-62.1909791	63	1	1.06349	0.952381;
	335	1	3	-3	0	0	1	1.02900274	-20.4667229	63	1	1.06349	0.936508;
	336	2	0.7	0	0	0	1	1.023	-23.0037916	63	1	1.07937	0.920635;
	337	1	13.6	-1.2	0	0	1	1.04195943	-27.5984475	63	1	1.07937	0.920635;
	338	2	0	0	0	0	1	1.05634068	-22.988346	63	1	1.07937	0.920635;
	339	1	17.8	1.1	0	0	1	1.0285786	-26.3167448	63	1	1.07937	0.920635;
	340	1	25.2	1	0	0	1	1.04216015	-31.752924	90	1	1.06667	0.977778;
	341	1	7.7	-10.7	0	0	1	1.06898669	-25.0057822	63	1	1.07937	0.920635;
	342	1	13.8	-1.9	0	0	1	1.0157778	-17.5569534	63	1	1.07937	0.952381;
	343	1	0	0	0	0	1	1.02320875	-14.57446	225	1	1.08889	0.986667;
	344	1	11.5	-3.5	0	0	1	1.00522223	-16.1564965	63	1	1.06349	0.968254;
	345	1	23.4	-5.5	0	0	1	1.02351214	-31.6470625	90	1	1.07778	0.977778;
	346	1	13.1	-0.3	0	0	1	1.06272223	-8.38375497	225	1	1.08444	1.00889;
	347	1	-0.7	0.1	0	0	1	1.03271902	-31.7619132	63	1	1.06349	0.968254;
	348	1	53.9	6.8	0	0	1	1.04443568	-28.1324268	90	1	1.1	0.944444;
	349	1	0	0	0	0	1	1.09011648	-17.3377381	380	1	1.10526	1.04211;
	350	1	0	0	0	0	1	1.08987099	-17.3321406	380	1	1.10526	1.04211;
	351	1	36	2.6	0	0	1	1.07285466	-19.5943559	225	1	1.08889	1;
	352	1	5.8	2	0	0	1	1.05404434	-32.5004007	225	1	1.08889	1.00444;
	353	1	34	-10.2	0	0	1	0.999818882	-35.2708416	63	1	1.04762	0.952381;
	354	1	2.5	1.2	0	0	1	1.02782905	-19.2407535	63	1	1.07937	0.920635;
	355	1	3	-1.9	0	0	1	1.03730552	-13.6471795	63	1	1.07937	0.920635;
	356	1	6	2	0	0	1	1.01667885	-25.4613138	63	1	1.07937	0.920635;
	357	1	14.7	2.4	0	0	1	0.993599504	-18.191007	63	1	1.07937	0.952381;
	358	1	23.9	10.1	0	0	1	1.01711462	-25.4322654	63	1	1.07937	0.920635;
	359	1	35.3	3	0	0	1	1.00937551	-26.9936536	63	1	1.06349	0.968254;
	360	1	54.9	5.6	0	19	1	1.04369192	-25.0144551	63	1	1.07937	0.920635;
	361	1	0	0	0	0	1	1.07307431	-20.9769093	150	1	1.1	0.9;
	362	1	0	0	0	0	1	1.07244633	-19.7549417	225	1	1.08889	1;
	363	1	10	4	0	0	1	1.05939342	-23.7003814	90	1	1.08889	0.933333;
	364	2	-3	0	0	0	1	1.035	-31.6380057	225	1	1.08889	1.00444;
	365	1	-0.1	-0.4	0	0	1	1.04036048	-10.382561	63	1	1.06349	0.936508;
	366	1	0	0	0	0	1	1.05477761	-6.6836218	225	1	1.08889	0.933333;
	367	1	0	0	0	0	1	1.07566279	-5.08817457	380	1	1.10526	1.03947;
	368	1	0	0	0	0	1	1.07149574	-6.05143919	380	1	1.10526	1.03947;
	369	1	0	0	0	0	1	1.06644677	-34.4648318	225	1	1.08889	1.00444;
	370	1	60	14.2	0	0	1	1.01707871	-32.4647823	225	1	1.08889	1.00444;
	371	1	12	2.6	0	0	1	1.01103197	-4.15899094	63	1	1.07937	0.952381;
	372	1	0	0	0	0	1	1.04392243	-5.97547527	225	1	1.08889	0.986667;
	373	1	24.9	7.3	0	0	1	1.06627622	-34.4795326	225	1	1.08889	1.00444;
	374	1	25.7	3.1	0	0	1	0.987311311	-64.1071093	63	1	1.06349	0.952381;
	375	1	17	0	0	0	1	1.01223978	-42.8150951	90	1	1.06667	0.977778;
	376	1	54.3	-0.4	0	0	1	1.02281972	-49.3807929	63	1	1.06349	0.952381;
	377	1	6	2.3	0	0	1	0.998752833	-16.115555	63	1	1.07937	0.952381;
	378	1	27.5	-0.1	0	0	1	1.03731696	-19.427037	63	1	1.06349	0.936508;
	379	1	0	0	0	0	1	1.04748838	-14.6148184	225	1	1.08889	0.933333;
	380	1	0	0	0	0	1	1.07080483	-11.7550214	380	1	1.10526	1.03947;
	381	1	52.7	7.3	0	0	1	1.01528965	-39.5733054	90	1	1.07778	0.977778;
	382	1	17.3	0.6	0	0	1	1.01382784	-9.81233709	63	1	1.07937	0.952381;
	383	1	43.9	15.4	0	0	1	1.02125596	-19.7212828	63	1	1.07937	0.920635;
	384	1	20.1	3.9	0	0	1	0.999758713	-31.5008842	63	1	1.07937	0.920635;
	385	1	18.9	10.3	0	0	1	1.02037495	-8.5700581	63	1	1.07937	0.920635;
	386	1	45.9	9	0	0	1	1.07456931	-19.5492648	225	1	1.08889	1;
	387	1	5.4	-2.5	0	0	1	1.05921216	-16.9204776	90	1	1.07778	0.922222;
	388	1	44.8	0.3	0	0	1	1.04408792	-26.2998299	90	1	1.1	0.944444;
	389	1	29	1.6	0	0	1	1.03624518	-17.0133254	63	1	1.06349	0.936508;
	390	1	0.8	0.3	0	0	1	1.02144849	-17.7644111	63	1	1.06349	0.968254;
	391	1	24.5	-4.9	0	0	1	1.02753086	-24.2710675	63	1	1.07937	0.920635;
	392	1	29.6	1.6	0	0	1	0.997761682	-29.7794475	63	1	1.06349	0.968254;
	393	1	6	0.1	0	0	1	1.0259493	-19.6890529	63	1	1.07937	0.952381;
	394	1	6	2	0	0	1	1.03097018	-24.9869332	63	1	1.07937	0.920635;
	395	1	44.1	4.4	0	0	1	1.03107285	-24.9806851	63	1	1.07937	0.920635;
	396	1	0	0	0	0	1	1.04255827	-8.82559113	63	1	1.07937	0.952381;
	397	1	13	-2.4	0	0	1	1.03173569	-28.1867249	63	1	1.07937	0.920635;
	398	1	6.7	2.2	0	0	1	1.02209105	-41.9339268	90	1	1.06667	0.977778;
	399	1	0.8	2.2	0	0	1	1.07407615	-20.027181	63	1	1.07937	0.920635;
	400	1	20.2	-1.8	0	0	1	1.03778597	-26.333049	63	1	1.07937	0.920635;
	401	1	5	0.1	0	0	1	1.03396096	-19.9295321	63	1	1.06349	0.936508;
	402	1	22.4	-1.9	0	0	1	1.0106121	-30.3578897	90	1	1.07778	0.922222;
	403	1	24.2	5.2	0	0	1	1.03266925	-12.8488738	63	1	1.06349	0.936508;
	404	1	32	10.5	0	0	1	1.04118645	-15.8123835	63	1	1.06349	0.936508;
	405	1	6	4.1	0	0	1	1.01598811	-17.8292617	63	1	1.06349	0.936508;
	406	1	60.7	3.4	0	0	1	1.01713658	-31.2393792	90	1	1.06667	0.977778;
	407	1	1.5	0.2	0	0	1	1.02776527	-37.0576568	90	1	1.06667	0.977778;
	408	1	13.8	-4.2	0	0	1	1.05128578	-33.220924	63	1	1.07937	0.920635;
	409	2	0	0	0	0	1	1.02311749	-27.8955127	63	1	1.06349	0.968254;
	410	1	21	1.1	0	0	1	1.02190586	-45.1039958	90	1	1.06667	0.977778;
	411	1	17.8	-3.4	0	0	1	1.02364169	-35.4702634	90	1	1.06667	0.977778;
	412	1	24.7	-11.1	0	0	1	1.0129351	-11.7028062	63	1	1.07937	0.952381;
	413	1	29	-1.7	0	0	1	1.02901971	-62.5565955	63	1	1.06349	0.952381;
	414	1	-0.4	0.1	0	0	1	1.0028596	-19.4670366	63	1	1.06349	0.936508;
	415	1	10.5	-1	0	0	1	1.01842859	-24.4910259	63	1	1.07937	0.952381;
	416	1	67.6	14.6	0	0	1	1.04344252	-33.6688545	225	1	1.08889	1.00444;
	417	1	18.2	5.4	0	0	1	1.02952899	-31.6151978	63	1	1.07937	0.920635;
	418	1	10	3.6	0	0	1	1.00812425	-31.7933159	63	1	1.04762	0.952381;
	419	1	29.8	7.5	0	0	1	1.04338227	-32.5274892	63	1	1.07937	0.920635;
	420	1	-4.2	-1.3	0	0	1	1.04702003	-32.0889398	63	1	1.07937	0.920635;
	421	1	0	0	0	0	1	1.01236324	-37.4564801	63	1	1.06349	0.968254;
	422	1	0	0	0	0	1	1.06098331	-20.5719447	63	1	1.07937	0.920635;
	423	1	0	0	0	0	1	1.0832017	-17.6837753	225	1	1.08889	1;
	424	1	0	0	0	0	1	1.03165659	-6.46785568	63	1	1.07937	0.952381;
	425	1	0	0	0	0	1	1.06477472	-2.921353	225	1	1.08889	0.986667;
	426	1	0	0	0	0	1	1.0078902	-33.1051779	63	1	1.04762	0.952381;
	427	1	0.3	-0.2	0	0	1	1.02896643	-10.6657846	63	1	1.06349	0.936508;
	428	1	4	-1	0	0	1	1.02848125	-54.5204986	63	1	1.06349	0.952381;
	429	1	58.6	6.9	0	0	1	1.02608795	-21.3031627	63	1	1.06349	0.968254;
	430	1	117.3	33.8	0	0	1	1.05909359	-31.0307933	225	1	1.08889	1.00444;
	431	1	13	1.1	0	0	1	1.04745039	-23.3818395	63	1	1.07937	0.920635;
	432	1	26	-2.4	0	0	1	1.02349517	-40.8613438	63	1	1.07937	0.920635;
	433	1	3.5	3.3	0	0	1	0.991280868	-33.8087138	63	1	1.04762	0.952381;
	434	1	14	-4.8	0	0	1	1.01459119	-15.3295828	63	1	1.06349	0.936508;
	435	1	37.4	3.5	0	0	1	1.02880755	-30.8776088	90	1	1.07778	0.922222;
	436	1	26.9	-2.8	0	0	1	1.00286576	-17.369803	63	1	1.06349	0.968254;
	437	1	1	-2	0	0	1	1.03651954	-19.4788381	63	1	1.09524	0.904762;
	438	1	12.9	-2.1	0	0	1	0.990443033	-34.5081058	63	1	1.04762	0.952381;
	439	1	13.5	0.6	0	0	1	1.02686063	-15.2570611	63	1	1.07937	0.952381;
	440	2	0	0	0	0	1	1.01952532	-30.6223044	63	1	1.07937	0.920635;
	441	1	2.4	2	0	0	1	1.02429518	-14.4957445	63	1	1.06349	0.936508;
	442	1	27.5	3.5	0	0	1	1.02748041	-2.07680173	63	1	1.07937	0.952381;
	443	1	12.6	3.1	0	0	1	1.05656105	-25.8586951	90	1	1.11111	0.955556;
	444	1	0	0	0	0	1	1.06087522	-26.6854443	90	1	1.11111	0.955556;
	445	1	25.8	7.1	0	0	1	1.07134636	-26.9183503	90	1	1.11111	0.955556;
	446	1	0	0	0	0	1	1.02320006	-21.6744934	225	1	1.08889	0.924444;
	447	2	1	1.9	0	0	1	0.997	-11.2352978	63	1	1.06349	0.968254;
	448	1	0	0	0	0	1	1.02145789	-2.72280004	63	1	1.07937	0.952381;
	449	1	0	0	0	0	1	1.08504892	1.04943714	225	1	1.09538	0.986667;
	450	1	0	0	0	0	1	1.09027962	2.23501726	380	1	1.10526	1.03947;
	451	1	1	-0.3	0	0	1	0.999242757	-25.2553806	63	1	1.07937	0.920635;
	452	1	0	0	0	50	1	1.06219035	-56.4614375	63	1	1.0658	0.952381;
	453	1	0	0	0	0	1	1.05813404	-51.1948206	225	1	1.08444	1.00444;
	454	1	26.5	3.4	0	0	1	1.03756209	-25.9847289	63	1	1.07937	0.920635;