function mpc = case1888rte_res
%CASE1888RTE_RES

%% MATPOWER Case Format : Version 2
mpc.version = '2';

%%-----  Power Flow Data  -----%%
%% system MVA base
mpc.baseMVA = 100;

%% bus data
%    bus_i    type    Pd    Qd    Gs    Bs    area    Vm    Va    baseKV    zone    Vmax    Vmin
mpc.bus = [
    1    1    5.8    -5.8    0    0    1    1.03149333    -43.4923676    225    1    1.08889    0.888889;
    2    1    0    0    0    0    1    1.05203485    -1.69985067    380    1    1.10263    1.04841;
    3    1    142.5    -13.4    0    0    1    1.0448381    -18.2673431    225    1    1.08444    1.00444;
    4    1    0    0    0    0    1    1.06460516    -20.592268    150    1    1.10667    0.9;
    5    1    32.8    -5.3    0    0    1    1.06160466    -24.9740814    225    1    1.08889    0.933333;
    6    1    40.2    4    0    0    1    1.06056279    -25.2850943    225    1    1.08889    0.933333;
    7    1    0    0    0    0    1    1.05380777    -21.4555288    380    1    1.10526    1.03947;
    8    1    0    0    0    0    1    1.0570834    -22.5908177    380    1    1.10526    1.03947;
    9    1    0    0    0    0    1    1.04785952    -36.5221343    225    1    1.09035    1.00444;
    10    1    148.8    14.9    0    0    1    1.04436458    -29.2139503    225    1    1.08889    0.933333;
    11    1    25.6    5    0    0    1    1.04319498    -40.8700467    225    1    1.08889    1.00444;
    12    1    39.1    8.7    0    0    1    1.02281295    -40.3897845    225    1    1.08889    1.00444;
    13    1    70.5    17.2    0    0    1    1.04317979    -40.8671847    225    1    1.08889    1.00444;
    14    1    36    -4.2    0    0    1    1.02894304    -42.5998585    225    1    1.08252    0.95;
    15    1    0    0    0    0    1    1.05264309    -32.8339279    225    1    1.08889    1.00444;
    16    1    0    0    0    0    1    1.05264349    -32.8339308    225    1    1.08889    1.00444;
    17    1    23.7    -12.4    0    0    1    1.02901493    -42.6272193    225    1    1.08889    0.888889;
    18    1    5.9    -4.8    0    0    1    1.03827721    -34.8216521    225    1    1.09633    0.986667;
    19    1    34    3.7    0    0    1    1.03589153    -40.9750297    225    1    1.08889    1.00444;
    20    1    6.9    0.8    0    0    1    1.03591814    -40.972731    225    1    1.08889    1.00444;
    21    1    9.2    -29.1    0    0    1    1.04563856    -37.7298153    225    1    1.08889    1.00444;
    22    1    67.7    -3.6    0    0    1    1.04526149    -38.0137179    225    1    1.08889    0.986667;
    23    1    25.4    -2.7    0    0    1    1.02132076    -46.8549958    225    1    1.08889    0.888889;
    25    1    64    4.6    0    0    1    1.05341127    -16.9569371    225    1    1.08444    1.00889;
    27    1    71.6    46.7    0    0    1    1.02093389    -19.8875851    225    1    1.08889    0.933333;
    28    1    105.4    6.9    0    0    1    1.03730024    -35.877349    225    1    1.08889    1.00444;
    29    1    0    0    0    0    1    1.05200172    -1.68624012    380    1    1.10526    1.04842;
    30    1    0    0    0    0    1    1.05203048    -1.66986846    380    1    1.10526    1.04842;
    31    1    21.7    0.9    0    0    1    1.04882932    -5.02832106    225    1    1.08444    1.00889;
    33    1    68.9    2.6    0    0    1    1.03238586    -5.81617742    225    1    1.08444    1.00889;
    34    1    50.6    12.7    0    0    1    1.04308499    -40.7845572    225    1    1.08889    1.00444;
    35    1    17    2.1    0    0    1    1.02288942    -21.6109785    150    1    1.08    0.966667;
    36    1    38.2    6.3    0    0    1    1.06155485    -30.7718854    225    1    1.09212    1;
    37    1    0    0    0    0    1    1.06914917    -28.3384306    380    1    1.10526    1.04785;
    38    1    89    9.6    0    0    1    1.04384914    -38.1604576    225    1    1.08889    0.986667;
    2050    1    0    0    0    -64    1    1.02504482    -43.1805998    20    1    1.5    0.8;
    39    1    70.9    -2.3    0    0    1    1.0289438    -42.3592546    225    1    1.08889    0.968889;
    40    1    136.2    -10.7    0    0    1    1.03444741    -38.8152746    380    1    1.10526    1;
    41    1    64.6    17.3    0    0    1    1.04164115    -27.3301071    225    1    1.08889    0.933333;
    42    1    13.4    3.3    0    0    1    1.02663818    -46.6229246    225    1    1.08889    0.888889;
    43    1    33.3    4.7    0    0    1    1.0264638    -46.6670575    225    1    1.08889    0.888889;
    44    1    211.6    -1.3    0    0    1    1.05486257    -26.1320349    225    1    1.08496    1.00444;
    45    1    92.1    -9.1    0    0    1    1.04812576    -38.9306766    225    1    1.08889    1.00444;
    46    2    0    0    0    0    1    1.038    -7.667229    150    1    1.10843    0.9;
    47    1    0    0    0    0    1    1.0263661    -41.3117372    225    1    1.08889    1.00444;
    48    1    0    0    0    0    1    1.02636589    -41.311736    225    1    1.08889    1.00444;
    49    1    63.7    84.5    0    -80    1    1.02636466    -41.3117291    225    1    1.08889    1.00444;
    50    1    10.4    6.6    0    0    1    1.03638741    -36.2196756    225    1    1.08889    1.00444;
    51    1    0    0    0    0    1    1.05188712    -17.4042787    225    1    1.08889    1;
    52    1    68.7    16.5    0    0    1    1.01896671    -46.9184006    225    1    1.08889    0.888889;
    53    1    101.2    15.9    0    0    1    1.01034096    -45.5670085    225    1    1.08889    0.968889;
    54    1    0    0    0    0    1    1.01362701    -43.3935907    380    1    1.10526    1;
    55    1    28.9    10.6    0    0    1    1.02696752    -5.12914433    225    1    1.08444    1.00889;
    56    1    28.2    2.1    0    0    1    1.0271573    -5.13056232    225    1    1.08444    1.00889;
    1827    1    109.6    -12.9    0    0    1    1.04260248    -34.657908    225    1    1.08889    1.00444;
    57    1    27.3    -10.9    0    0    1    1.05354664    -20.3612308    225    1    1.08945    0.933333;
    58    2    0    0    0    0    1    1.03648193    -7.87858643    150    1    1.10862    0.9;
    59    1    36.8    20.3    0    0    1    1.02314002    -2.05811093    225    1    1.08444    1.00889;
    60    1    36.5    30.8    0    0    1    1.02296855    -2.05602476    225    1    1.08444    1.00889;
    61    1    0    0    0    0    1    1.02486847    -2.91093264    225    1    1.08889    0.977778;
    62    1    8.4    -0.3    0    0    1    1.02838774    -44.8442136    225    1    1.08889    0.888889;
    63    1    13.2    -6.3    0    0    1    1.06744634    -26.4263359    225    1    1.08889    0.933333;
    64    1    13.2    3.3    0    0    1    1.02235895    -40.5267878    225    1    1.08889    1.00444;
    65    1    22.7    2.5    0    0    1    1.04797022    -36.5723294    225    1    1.08889    1.00444;
    66    1    11.4    -9.7    0    0    1    1.05467372    -17.6792165    225    1    1.08889    1;
    67    1    10.2    -1.3    0    0    1    1.03887262    -32.7144704    225    1    1.08889    0.986667;
    68    1    0    0    0    0    1    1.02951107    -46.2332693    225    1    1.08889    0.888889;
    69    1    0    0    0    0    1    1.02342882    -46.4249081    225    1    1.08889    0.888889;
    70    1    0    0    0    0    1    1.0318011    -44.4602208    380    1    1.10526    1.01316;
    71    1    39.2    2.8    0    0    1    1.03661923    -41.0915275    225    1    1.08889    1.00444;
    72    1    19.3    3.3    0    -80    1    1.03559998    -40.0610954    225    1    1.08889    1.00444;
    73    1    0    0    0    0    1    1.04335905    -5.37624632    225    1    1.08889    0.977778;
    74    1    0    0    0    0    1    1.0433684    -5.3755638    225    1    1.08889    0.977778;
    75    1    131.9    3.2    0    0    1    1.04166114    -5.85757028    225    1    1.08444    1.00889;
    76    1    0    0    0    0    1    1.05127602    -21.5672139    225    1    1.08444    1.00444;
    77    1    0    0    0    0    1    1.04792325    -16.6550163    380    1    1.10263    1.04211;
    78    1    94.6    -1.9    0    0    1    1.05118552    -21.6166278    225    1    1.08444    1.00444;
    79    1    -1.7    -4.6    0    0    1    1.02331098    -40.294073    225    1    1.08936    1.00444;
    80    1    3.6    -7.2    0    0    1    1.02331121    -40.298162    225    1    1.08936    1.00444;
    81    1    35.4    10.9    0    0    1    1.03217693    -41.4880132    225    1    1.08889    0.888889;
    82    1    15.1    0.7    0    0    1    1.02481856    -45.0281015    225    1    1.08124    0.95;
    83    1    57.4    18    0    0    1    1.01752839    -46.216645    225    1    1.08889    0.888889;
    84    1    89.9    -5.8    0    0    1    1.05114958    -18.5175383    225    1    1.08889    1;
    85    1    0    0    0    0    1    1.02932206    -16.3727311    225    1    1.08889    1;
    86    1    239.8    17.5    0    0    1    1.06749173    -16.3599917    380    1    1.10526    1.0507;
    87    1    35.5    16    0    0    1    1.04562791    -13.9985462    225    1    1.08889    1;
    88    1    76.1    23    0    0    1    1.05684667    -17.6199806    225    1    1.08889    1;
    89    2    0    0    0    0    1    1.02    -12.0781904    150    1    1.1    0.9;
    90    1    21.3    12    0    0    1    1.01562498    -34.678722    225    1    1.08889    0.986667;
    91    1    11.2    -5.2    0    0    1    1.0442032    -9.20434958    225    1    1.08444    1.00889;
    92    1    0    0    0    0    1    1.04784091    -30.3617366    380    1    1.10526    1.04211;
    93    1    0    0    0    0    1    1.04819669    -30.7872    380    1    1.10526    1.04211;
    96    1    11.7    1.3    0    0    1    1.05246646    -18.3715671    225    1    1.08889    1;
    97    1    6.1    1.4    0    0    1    1.05271499    -34.1173772    225    1    1.08889    1.00444;
    98    1    31.6    2.6    0    0    1    1.02595706    -10.6331226    150    1    1.1    0.9;
    99    1    68.9    -11.7    0    0    1    1.05109263    -20.0622759    225    1    1.08889    1;
    100    2    0.2    -0    0    0    1    1.036    -41.0134314    225    1    1.08294    0.95;
    101    1    0    0    0    0    1    1.06130462    -25.0525369    225    1    1.08889    0.933333;
    102    1    0    0    0    0    1    1.05730728    -22.55067    380    1    1.10526    1.03947;
    103    1    0    0    0    0    1    1.05390093    -21.4220774    380    1    1.10526    1.03947;
    104    1    0    0    0    0    1    1.04342734    -40.8552659    225    1    1.08889    1.00444;
    1828    1    30.1    3.8    0    0    1    1.03331865    -42.0074698    225    1    1.08889    1.00444;
    105    1    0    0    0    0    1    1.0153912    -37.0396476    225    1    1.08889    0.986667;
    106    1    12.1    4.5    0    0    1    1.04327481    -40.8635795    225    1    1.08889    1.00444;
    107    1    106.1    -0.3    0    0    1    1.0331707    -24.4147893    225    1    1.08889    0.933333;
    108    1    0    0    0    0    1    1.0448452    -22.5790193    380    1    1.10526    1.03947;
    109    1    43.3    8.4    0    0    1    1.05363596    -16.8746348    225    1    1.08889    1;
    110    1    33.2    -7.5    0    0    1    1.04972999    -38.4349688    225    1    1.08986    1.00444;
    111    1    99.5    -12.4    0    0    1    1.07047513    -24.3640959    225    1    1.09612    1;
    112    1    116.4    -6.7    0    0    1    1.036317    -35.8006103    225    1    1.08889    0.986667;
    113    1    65.7    14.7    0    0    1    1.04783962    -36.5197322    225    1    1.09036    1.00444;
    114    1    107.2    21.2    0    0    1    1.01859218    -46.9855861    225    1    1.08889    0.924444;
    115    1    56.9    -2.7    0    0    1    1.04478539    -31.9620307    225    1    1.09614    0.986667;
    117    1    0    0    0    0    1    1.04949781    -30.8375626    380    1    1.10526    1.03947;
    119    1    123.6    -19.8    0    0    1    1.02694981    -29.5017923    225    1    1.08444    1.00444;
    2051    1    0    0    0    -64    1    1.00159779    -16.1869939    20    1    1.4    0.8;
    120    1    33.3    -21.3    0    0    1    1.05166038    -15.9017573    225    1    1.08444    1.00889;
    121    1    0    0    0    0    1    1.04809244    -13.5761684    380    1    1.10263    1.02895;
    122    1    1.7    -4.4    0    0    1    1.03371202    -24.4312552    225    1    1.08889    0.933333;
    123    1    140.3    17.3    0    0    1    1.02448072    -20.6158307    225    1    1.08889    0.933333;
    124    1    33.7    -1.8    0    0    1    1.07264692    -28.2814642    63    1    1.07937    0.920635;
    125    2    0    0    0    0    1    1.034    -11.0182027    225    1    1.07476    0.95;
    126    1    -1.9    -5.4    0    0    1    1.05886575    -9.67086412    225    1    1.09768    1;
    127    1    0    0    0    0    1    1.0534005    -9.63554369    380    1    1.10526    1.05263;
    128    1    0    0    0    0    1    1.05345569    -9.63194795    380    1    1.10526    1.05263;
    129    1    0    0    0    0    1    1.05346235    -9.62846432    380    1    1.10526    1.05263;
    130    1    0    0    0    0    1    1.05348025    -9.64408724    380    1    1.10526    1.05263;
    131    1    0    0    0    0    1    1.04463475    -31.8803576    225    1    1.09645    0.986667;
    132    1    0    0    0    0    1    1.04466247    -31.8526546    225    1    1.09645    0.986667;
    133    1    0    0    0    0    1    1.04943382    -30.7681737    380    1    1.10526    1.03947;
    134    1    77.3    -10.6    0    0    1    1.02932303    -43.7529348    225    1    1.08889    0.968889;
    135    1    28.1    3.8    0    0    1    1.05322278    -16.9207475    225    1    1.08444    1.00889;
    136    1    -5.2    -9.4    0    0    1    1.04793054    -34.5468872    380    1    1.10526    1.03947;
    137    1    106.4    8    0    0    1    1.04090791    -18.3029803    225    1    1.08889    0.933333;
    138    1    0    0    0    0    1    1.04030261    -14.6191442    380    1    1.10526    1.03947;
    140    1    113.7    -8.3    0    0    1    1.04785941    -5.81388506    225    1    1.08444    1.00889;
    141    1    44.6    0.5    0    0    1    1.04713663    -5.59946555    225    1    1.08444    1.00889;
    142    1    165.2    -11.8    0    0    1    1.03825771    -17.2895514    225    1    1.08444    1.00444;
    143    1    29.2    2.1    0    0    1    1.04357747    -18.7041151    225    1    1.08889    0.933333;
    144    1    32.8    4.4    0    0    1    1.04355185    -18.7086307    225    1    1.08889    0.933333;
    145    1    19    -18.1    0    0    1    1.04972043    -38.4185727    225    1    1.08952    1.00444;
    146    1    0    0    0    0    1    1.04889424    -19.7143605    225    1    1.09478    1;
    147    1    0    0    0    0    1    1.04889232    -19.7143386    225    1    1.09478    1;
    148    1    37.1    5.6    0    0    1    1.05119071    -18.2332023    225    1    1.08889    1;
    149    1    20    -3.9    0    0    1    1.05270739    -34.0422654    225    1    1.08889    1.00444;
    150    1    38.1    1.6    0    0    1    1.03628049    -9.30139352    225    1    1.08444    1.00889;
    151    1    24.8    -1.8    0    0    1    1.05024615    -19.057588    225    1    1.08889    1;
    152    1    0    0    0    0    1    1.04381179    -11.0161277    225    1    1.08444    1.00889;
    153    1    0    0    0    0    1    1.04380088    -11.019019    225    1    1.08444    1.00889;
    154    1    0    0    0    0    1    1.04306522    -6.22223899    225    1    1.08444    1.00889;
    155    1    0    0    0    0    1    1.04527756    -4.86379849    380    1    1.10263    1.02895;
    156    1    155.3    26.5    0    0    1    1.01779227    -46.1312103    225    1    1.08889    0.888889;
    157    1    0    0    0    0    1    1.05885154    -9.67071992    225    1    1.09766    1;
    158    1    0    0    0    0    1    1.05343984    -9.70998525    380    1    1.10526    1.05263;
    159    1    21.5    4.4    0    0    1    1.03810341    -33.7185977    225    1    1.08889    0.986667;
    160    1    26.2    2.1    0    0    1    1.05228533    -17.9862906    225    1    1.08889    1;
    161    1    0    0    0    0    1    1.05124322    -33.8014959    225    1    1.08444    1.00444;
    162    1    0    0    0    0    1    1.05124322    -33.8014959    225    1    1.08444    1.00444;
    163    1    0    0    0    0    1    1.05125059    -33.8016928    225    1    1.08444    1.00444;
    164    1    55.3    -11.4    0    0    1    1.05124218    -33.8014682    225    1    1.08444    1.00444;
    165    1    0    0    0    0    1    1.02155415    -19.8388389    225    1    1.08889    0.933333;
    166    1    30    12.3    0    0    1    1.02862428    -28.9602937    225    1    1.08889    0.986667;
    2019    1    0    0    0    -64    1    0.961263558    -20.249465    20    1    1.4    0.9;
    167    1    0    0    0    0    1    1.04509756    -19.645257    225    1    1.08941    1;
    168    1    0    0    0    0    1    1.04962397    -15.8950528    380    1    1.10526    1.05263;
    169    2    0    0    0    0    1    1.065    -24.8986134    225    1    1.1    0.9;
    170    1    17.8    2.6    0    0    1    1.02141398    -22.2634762    150    1    1.08    0.966667;
    171    1    25.3    -3.2    0    0    1    1.03619839    -40.8869364    225    1    1.08889    1.00444;
    172    1    -3.7    -2    0    0    1    1.03651623    -40.8372268    225    1    1.08889    1.00444;
    173    1    37.3    0.7    0    0    1    1.01494319    -46.3423284    225    1    1.08889    0.888889;
    181    1    107.9    3.9    0    0    1    1.05024862    -19.0355714    225    1    1.08889    1;
    182    1    29.5    6.8    0    0    1    1.03299656    -36.3585207    225    1    1.08889    0.986667;
    183    1    0    0    0    0    1    1.04359513    -13.9192005    380    1    1.10526    1.03947;
    184    1    0    0    0    0    1    1.04013214    -13.730025    380    1    1.10526    1.03947;
    185    1    0    0    0    0    1    1.04015033    -13.733674    380    1    1.10526    1.03947;
    186    1    0    0    0    0    1    1.04358655    -13.9301086    380    1    1.10526    1.03947;
    187    1    28.1    -10    0    0    1    1.03151341    -45.3907384    225    1    1.08889    0.924444;
    188    1    -2    -1.1    0    0    1    1.04498229    -37.5987798    225    1    1.08889    0.986667;
    189    1    65.8    19.1    0    0    1    1.03675304    -31.5353625    225    1    1.08444    1.00444;
    190    1    -2.3    1.2    0    0    1    1.04290358    -25.4957374    380    1    1.10263    1.04211;
    191    1    -2.3    1.4    0    0    1    1.04296248    -25.5005725    380    1    1.10263    1.04211;
    192    1    0    0    0    0    1    1.03637178    -41.2331178    225    1    1.08889    1.00444;
    193    1    0    0    0    0    1    1.04649206    -6.21726342    225    1    1.08889    0.977778;
    194    1    0    0    0    0    1    1.04649206    -6.21726342    225    1    1.08889    0.977778;
    195    1    83.6    -8.6    0    0    1    1.02847573    -44.3382384    225    1    1.08889    0.968889;
    196    1    0    0    0    0    1    1.03410731    -7.69149314    225    1    1.08889    0.933333;
    197    1    0    0    0    0    1    1.0330817    -8.15985713    225    1    1.08889    0.933333;
    198    1    57.5    10.2    0    0    1    1.04150541    -26.0653987    225    1    1.08444    1.00444;
    199    1    177.4    -31.4    0    0    1    1.05205842    -21.968205    225    1    1.08444    1.00444;
    200    1    0    0    0    0    1    1.03755574    -6.61245985    225    1    1.08889    0.977778;
    201    1    0    0    0    0    1    1.04241006    -24.9411633    225    1    1.08444    1.00444;
    202    1    124.2    -3.2    0    0    1    1.03201187    -44.2343591    225    1    1.08889    0.951111;
    203    1    35.3    1.9    0    0    1    1.03608558    -40.0215451    225    1    1.08889    1.00444;
    204    1    51.6    -4    0    0    1    1.04471086    -37.5003049    225    1    1.08889    0.986667;
    2086    1    0    0    0    -64    1    0.996621657    -16.7356081    20    1    1.4    0.8;
    205    1    16.9    -1.8    0    0    1    1.04509955    -16.3140388    225    1    1.08444    1.00889;
    206    1    0    0    0    0    1    1.04768569    -14.4078746    380    1    1.10263    1.02895;
    207    1    38.6    -0.7    0    0    1    1.03612184    -40.1303326    225    1    1.08889    1.00444;
    1829    2    0    0    0    0    1    1.022    -44.3479538    225    1    1.07859    0.95;
    208    1    0    0    0    0    1    1.02199257    -44.3479293    225    1    1.08889    0.888889;
    209    1    171.1    24.7    0    0    1    1.040209    -25.1062526    225    1    1.08444    1.00444;
    210    1    46.3    14.3    0    0    1    1.03764499    -34.4201076    225    1    1.09504    0.986667;
    211    1    58.6    9.8    0    0    1    1.03244361    -6.36532273    225    1    1.08444    1.00889;
    212    1    14.6    -0.7    0    0    1    1.03235576    -5.82463622    225    1    1.08444    1.00889;
    213    1    75.4    25.3    0    0    1    1.02998343    -9.32810792    225    1    1.08889    0.933333;
    215    1    0    0    0    0    1    1.0455137    -6.66253629    380    1    1.10526    1.03947;
    216    1    74.9    -2.9    0    0    1    1.04870156    -26.3935622    380    1    1.10526    1.03947;
    217    1    0    0    0    0    1    1.0321618    -8.54488327    225    1    1.08889    0.933333;
    218    1    0    0    0    0    1    1.03122769    -8.86540428    225    1    1.08889    0.933333;
    219    1    55.6    14.5    0    0    1    1.02304577    -1.66146948    225    1    1.08444    1.00889;
    220    1    -0.1    0.8    0    0    1    1.02345647    -1.60453888    225    1    1.08444    1.00889;
    221    1    11    -0.4    0    0    1    1.0328122    -5.34343649    225    1    1.08444    1.00889;
    222    1    39.3    5.6    0    0    1    1.03905929    -29.8220143    225    1    1.08889    1.00444;
    223    1    21.6    1.4    0    0    1    1.03243842    -6.32257738    225    1    1.08444    1.00889;
    224    1    16.7    2.3    0    0    1    1.0326978    -6.27175985    225    1    1.08444    1.00889;
    225    1    2    -1.4    0    0    1    1.03365361    -45.6380423    150    1    1.10667    0.946667;
    1830    1    0    0    0    0    1    1.06227711    -32.2990101    225    1    1.08444    1.00444;
    226    1    0    0    0    0    1    1.06019112    -29.1311203    380    1    1.10263    1.04211;
    227    1    119.3    -16.4    0    0    1    1.06985336    -23.990935    225    1    1.09795    1;
    228    1    0    0    0    0    1    1.05888933    -21.129495    380    1    1.10526    1.05019;
    229    1    72.1    6    0    0    1    1.03128404    -44.4234269    225    1    1.08889    0.911111;
    230    1    0    0    0    0    1    1.03598896    -41.4983118    380    1    1.10526    1;
    231    1    16.1    1.9    0    0    1    1.04342149    -40.8569282    225    1    1.08889    1.00444;
    232    1    14.9    0.9    0    0    1    1.03334873    -42.0043984    225    1    1.08889    1.00444;
    233    1    6.1    1.7    0    0    1    1.03969026    -33.3605353    225    1    1.08889    0.986667;
    234    1    1.1    1.7    0    0    1    1.03973495    -33.3441003    225    1    1.08889    0.986667;
    235    1    2    -3.9    0    0    1    1.04502913    -36.1329988    225    1    1.08889    1.00444;
    236    1    2.6    2.4    0    0    1    1.04482471    -36.1315619    225    1    1.08889    1.00444;
    237    1    129    -3.4    0    0    1    1.03627947    -40.8611098    225    1    1.08889    1.00444;
    238    1    0    0    0    0    1    1.03854671    -40.7343681    225    1    1.08889    1.00444;
    239    1    25.8    4.4    0    0    1    1.04517879    -36.8236816    225    1    1.08889    1.00444;
    240    1    31.9    3.6    0    0    1    1.04487739    -36.8497233    225    1    1.08889    1.00444;
    241    2    4.3    -1    0    0    1    1.011    -8.63602399    20    1    1.1    0.9;
    242    1    0    0    0    0    1    1.06211368    -9.34167399    150    1    1.08    0.966667;
    243    1    -3.4    -9.5    0    0    1    1.04141458    -26.5880759    380    1    1.11402    1.03947;
    244    1    30.9    7.4    0    0    1    1.04587    -29.9837131    380    1    1.11482    1.03947;
    245    1    11.7    0.6    0    0    1    1.04399006    -26.2252763    380    1    1.11264    1.03947;
    246    1    -18.3    -23.8    0    0    1    1.04518775    -26.2040098    380    1    1.11483    1.03947;
    247    1    45    5.3    0    0    1    1.03576523    -41.0189142    225    1    1.08889    1.00444;
    2029    1    0    0    0    -64    1    0.962090017    -18.5750248    20    1    1.4    0.9;
    2030    1    0    0    0    -64    1    0.961543609    -18.546945    20    1    1.4    0.9;
    248    1    0    0    0    0    1    1.04908958    -18.3536627    225    1    1.08889    1;
    249    1    0    0    0    0    1    1.04958566    -18.3533539    225    1    1.08889    1;
    250    1    0    0    0    0    1    1.06880941    -16.8799107    380    1    1.10526    1.05019;
    251    1    0.7    -3.7    0    0    1    1.03018018    -9.33148271    225    1    1.08889    0.933333;
    252    1    92.9    -6    0    0    1    1.04534636    -36.9716903    380    1    1.10526    1.03537;
    2025    1    0    0    0    -58    1    0.979749566    -40.7185008    20    1    1.4    0.9;
    2031    1    0    0    0    -128    1    0.947797056    -39.986635    20    1    1.4    0.9;
    2032    1    0    0    0    -58    1    0.971365072    -40.2282359    20    1    1.4    0.9;
    2046    1    0    0    0    -58    1    0.97444656    -40.3253253    20    1    1.4    0.9;
    253    1    3.2    -0.8    0    0    1    1.03549947    -39.4321027    225    1    1.08889    1.00444;
    254    1    3.9    3    0    0    1    1.03817794    -39.5382545    225    1    1.08889    1.00444;
    255    1    0    0    0    0    1    1.04391731    -38.5088384    225    1    1.08889    1.00444;
    257    1    0    0    0    0    1    1.04144071    -36.4149288    380    1    1.10526    1.04211;
    258    1    0    0    0    0    1    1.04121501    -36.5497311    380    1    1.10526    1.04211;
    259    1    106.5    20.7    0    0    1    1.03334453    -41.2612546    225    1    1.08889    0.928889;
    260    1    157.5    -28.3    0    0    1    1.04872496    -26.4039224    380    1    1.10526    1.03947;
    261    1    91.4    -3.2    0    0    1    1.03353507    -24.2748862    225    1    1.08444    1.00444;
    262    1    5.5    -1.3    0    0    1    1.03105247    -9.44465006    225    1    1.08889    0.933333;
    263    1    208    14.9    0    0    1    1.0418326    -13.6006436    380    1    1.10526    1.03947;
    267    1    250.6    22.2    0    0    1    1.03992295    -25.5853924    225    1    1.08444    1.00444;
    268    1    0    0    0    0    1    1.04163969    -22.2294641    380    1    1.10263    1.04211;
    269    1    0    0    0    0    1    1.0416508    -22.225966    380    1    1.10263    1.04211;
    270    2    46.4    27.4    0    0    1    1.029    -36.8383725    20    1    1.06846    0.95;
    271    1    0    0    0    0    1    1.05003044    -36.9444308    225    1    1.08889    0.986667;
    272    1    159.3    40.7    0    0    1    1.02448357    -28.3950846    225    1    1.08889    0.986667;
    273    1    203.1    3.9    0    0    1    1.0518845    -20.3121209    380    1    1.10263    1.04211;
    274    1    50    8.3    0    0    1    1.04378103    -35.4834017    225    1    1.09611    0.986667;
    275    1    17.6    -2.4    0    0    1    1.05240488    -35.090302    225    1    1.08889    1.00444;
    276    1    22.7    -2.9    0    0    1    1.02644109    -41.4025629    225    1    1.08889    1.00444;
    278    1    0    0    0    0    1    1.059863    -16.5753374    20    1    1.4    0.9;
    279    1    36.2    -22.3    0    0    1    1.04956335    -16.0894296    225    1    1.08889    0.933333;
    280    1    169.5    24.1    0    0    1    1.0415378    -13.8280516    380    1    1.10526    1.03947;
    281    1    0    0    0    0    1    1.04319165    -20.3476603    225    1    1.08959    1;
    282    1    0    0    0    0    1    1.04531825    -19.6479612    225    1    1.08959    1;
    283    1    0    0    0    0    1    1.01711853    -12.4807051    150    1    1.08    0.966667;
    284    1    25.8    -6.7    0    0    1    1.04694781    -36.3981172    225    1    1.08889    1.00444;
    285    1    65.6    -1    0    0    1    1.0361855    -36.6002305    225    1    1.08889    1.00444;
    286    1    52.2    0.8    0    0    1    1.05334501    -27.4970089    225    1    1.08889    0.933333;
    287    1    19.7    -0.8    0    0    1    1.03326134    -28.7153379    225    1    1.08444    1.00444;
    288    1    17.6    2    0    0    1    1.03326009    -28.7150721    225    1    1.08444    1.00444;
    289    1    58.8    -0.8    0    0    1    1.03721054    -35.9528775    225    1    1.08889    1.00444;
    2062    1    0    0    0    -64    1    0.975621056    -35.4781722    20    1    1.4    0.9;
    290    1    108.4    -13.2    0    0    1    1.03489545    -35.2049616    225    1    1.08889    1.00444;
    291    1    0    0    0    0    1    1.04203567    -33.7846115    380    1    1.10526    1.04211;