function mpc = case2746wp_res
%CASE2746WP_RES

%% MATPOWER Case Format : Version 2
mpc.version = '2';

%%-----  Power Flow Data  -----%%
%% system MVA base
mpc.baseMVA = 100;

%% bus data
%    bus_i    type    Pd    Qd    Gs    Bs    area    Vm    Va    baseKV    zone    Vmax    Vmin    lam_P    lam_Q    mu_Vmax    mu_Vmin
mpc.bus = [
    1    1    0    0    0    0    1    1.08040682    -0.64019044    220    1    1.11    0.95    98.3658    0.1938    0.0000    0.0000;
    2    1    0    0    0    0    1    1.08111311    1.26469438    220    1    1.11    0.95    97.9988    0.1556    0.0000    0.0000;
    3    1    0    0    0    0    1    1.04905515    -27.5170634    220    1    1.11    0.95    113.5931    0.8243    0.0000    0.0000;
    4    1    0    0    0    0    1    1.05917989    -6.29729438    220    1    1.11    0.95    101.3462    0.7470    0.0000    0.0000;
    5    1    0    0    0    0    1    1.05922982    -6.29981751    220    1    1.11    0.95    101.3481    0.7457    0.0000    0.0000;
    6    1    0    0    0    0    1    1.03607845    -18.4376851    220    1    1.11    0.95    106.5828    1.2223    0.0000    0.0000;
    7    1    0    0    0    0    1    1.03625502    -18.4293416    220    1    1.11    0.95    106.5743    1.2187    0.0000    0.0000;
    8    1    0    0    0    0    1    1.01000934    -13.9635519    400    1    1.05    0.95    105.2553    0.6873    0.0000    0.0000;
    9    1    0    0    0    0    1    1.01003754    -13.9589249    400    1    1.05    0.95    105.2527    0.6857    0.0000    0.0000;
    10    1    0    0    0    0    1    1.01422059    -18.4151024    220    1    1.11    0.95    107.7378    1.8165    0.0000    0.0000;
    11    1    0    0    0    0    1    1.01411095    -18.3998524    220    1    1.11    0.95    107.7369    1.8191    0.0000    0.0000;
    12    1    0    0    0    0    1    1.01415934    -18.3900929    220    1    1.11    0.95    107.7347    1.8184    0.0000    0.0000;
    13    1    0    0    0    0    1    1.00780428    -12.1192283    400    1    1.05    0.95    104.4075    1.0389    0.0000    0.0000;
    14    1    0    0    0    0    1    1.0078598    -12.1087545    400    1    1.05    0.95    104.4018    1.0365    0.0000    0.0000;
    15    1    0    0    0    0    1    1.00815888    -17.1835347    400    1    1.05    0.95    106.1196    0.0526    0.0000    0.0000;
    16    1    0    0    0    0    1    1.00815888    -17.1835347    400    1    1.05    0.95    106.1196    0.0526    0.0000    0.0000;
    17    2    11    40    0    0    1    1.09088    -22.3410885    220    1    1.11    0.95    109.5314    0.0007    0.0000    0.0000;
    18    2    14    40    0    0    1    1.09091    -22.33939    220    1    1.11    0.95    109.5301    0.0000    0.0000    0.0203;
    19    1    0    0    0    0    1    1.06537881    -5.10303696    220    1    1.11    0.95    100.6721    0.6066    0.0000    0.0000;
    20    1    0    0    0    0    1    1.06541902    -5.10186094    220    1    1.11    0.95    100.6736    0.6058    0.0000    0.0000;
    21    1    0    0    0    0    1    1.03526881    -19.9865611    220    1    1.11    0.95    108.3430    1.3062    0.0000    0.0000;
    22    1    0    0    0    0    1    1.03519454    -19.9884823    220    1    1.11    0.95    108.3441    1.3075    0.0000    0.0000;
    23    1    0    0    0    0    1    1.01716368    -18.2704446    220    1    1.11    0.95    107.6600    1.7291    0.0000    0.0000;
    24    1    0    0    0    0    1    1.06895635    -2.89895349    220    1    1.11    0.95    99.8073    0.5296    0.0000    0.0000;
    25    1    0    0    0    0    1    1.00315966    -14.4675774    400    1    1.05    0.95    105.4805    0.4745    0.0000    0.0000;
    26    2    46.738    72.054    0    0    1    1.09091    -0.266215977    220    1    1.11    0.95    98.1840    0.0000    1871.2524    0.0000;
    27    2    85.493    122.06    0    0    1    1.09091    1.52270145    220    1    1.11    0.95    97.8808    0.0000    2497.9903    0.0000;
    28    3    60    110    0    0    1    1.0325    0    400    1    1.05    0.95    98.8168    -0.1638    0.0000    0.0000;
    29    2    60.097    90    0    0    1    1.0325    0.00599780833    400    1    1.05    0.95    98.8125    -0.1626    0.0000    0.0000;
    30    1    0    0    0    0    1    1.02253603    -19.2505802    220    1    1.11    0.95    108.2832    1.5095    0.0000    0.0000;
    31    1    0    0    0    0    1    1.0314205    -1.48533228    400    1    1.05    0.95    98.9272    -0.4853    0.0000    0.0000;
    32    1    0    0    0    0    1    1.01155484    -18.7738878    220    1    1.11    0.95    107.9744    1.8681    0.0000    0.0000;
    33    1    0    0    0    0    1    1.06896286    -2.89782835    220    1    1.11    0.95    99.8069    0.5295    0.0000    0.0000;
    34    1    0    0    0    0    1    1.06576657    -9.87880779    220    1    1.11    0.95    103.0266    0.5256    0.0000    0.0000;
    35    1    0    0    0    0    1    1.07594304    -13.6798335    220    2    1.11    0.95    104.6817    0.0239    0.0000    0.0000;
    36    1    0    0    0    0    1    1.0798473    -13.3299378    220    2    1.11    0.95    104.6851    -0.0233    0.0000    0.0000;
    37    1    0    0    0    0    1    1.08566955    -11.5614956    220    2    1.11    0.95    103.5611    -0.0732    0.0000    0.0000;
    38    1    0    0    0    0    1    1.0856586    -11.5659373    220    2    1.11    0.95    103.5634    -0.0730    0.0000    0.0000;
    39    1    0    0    0    0    1    1.06453811    -16.6337325    220    2    1.11    0.95    106.6792    -0.1631    0.0000    0.0000;
    40    1    0    0    0    0    1    1.08835956    -9.74248665    220    2    1.11    0.95    102.8022    -0.2150    0.0000    0.0000;
    41    1    0    0    0    0    1    1.08832114    -9.74068808    220    2    1.11    0.95    102.8019    -0.2146    0.0000    0.0000;
    42    1    0    0    0    0    1    1.02987016    -10.1051105    400    2    1.05    0.95    102.8310    -0.3182    0.0000    0.0000;
    43    2    11.436    0    0    0    1    1.09091    -10.1748408    220    2    1.11    0.95    102.8898    0.0019    0.0000    0.0000;
    44    2    24    0    0    0    1    1.09096    -10.1465672    220    2    1.11    0.95    102.8801    0.0000    1267.4360    0.0000;
    45    2    20    0    0    0    1    1.0325    -10.9484036    400    2    1.05    0.95    103.5574    0.0000    0.0000    0.0000;
    46    1    0    0    0    0    1    1.03252494    -10.9501369    400    2    1.05    0.95    103.5562    -0.0017    0.0000    0.0000;
    47    1    0    0    0    0    1    1.08442948    -10.3515032    220    2    1.11    0.95    103.2216    -0.1332    0.0000    0.0000;
    48    1    0    0    0    0    1    1.02080229    -16.013959    400    2    1.05    0.95    104.6752    -0.3477    0.0000    0.0000;
    49    1    0    0    0    0    1    1.02076879    -16.0231927    400    2    1.05    0.95    104.6797    -0.3469    0.0000    0.0000;
    50    1    0    0    0    0    1    1.03449189    -12.1397768    400    2    1.05    0.95    103.9640    -0.4380    2649.8675    0.0000;
    51    1    0    0    0    0    1    1.07195996    -15.4471927    220    2    1.11    0.95    106.0233    -0.1063    0.0000    0.0000;
    52    1    0    0    0    0    1    1.07194698    -15.4468512    220    2    1.11    0.95    106.0243    -0.1064    0.0000    0.0000;
    53    1    0    0    0    0    1    1.03010713    -11.5986176    400    2    1.05    0.95    103.5431    -0.2198    0.0000    0.0000;
    54    1    0    0    0    0    1    1.0301149    -11.5970083    400    2    1.05    0.95    103.5419    -0.2206    0.0000    0.0000;
    55    2    12    0    0    0    1    1.09121    -9.82165653    220    2    1.11    0.95    102.6793    -0.1306    0.0000    0.0000;
    56    2    11.436    0    0    0    1    1.09115    -9.81873352    220    2    1.11    0.95    102.6756    -0.1282    0.0000    0.0000;
    57    2    12    0    0    0    1    1.03336    -10.5582259    400    2    1.05    0.95    102.9624    -0.4555    0.0000    0.0000;
    58    2    11.436    0    0    0    1    1.03337    -10.5632165    400    2    1.05    0.95    102.9649    -0.4554    0.0000    0.0000;
    59    2    167.518    60    0    0    1    1.08415    -11.72659    220    2    1.11    0.95    103.6382    0.0447    0.0000    0.0000;
    60    1    0    0    0    0    1    1.08416676    -11.7267486    220    2    1.11    0.95    103.6376    0.0440    0.0000    0.0000;
    61    1    0    0    0    0    1    1.08546868    -10.5247557    220    2    1.11    0.95    103.1603    -0.1600    0.0000    0.0000;
    62    1    0    0    0    0    1    1.08467569    -11.446533    220    2    1.11    0.95    103.6562    0.0311    0.0000    0.0000;
    63    1    0    0    0    0    1    1.08467071    -11.4498631    220    2    1.11    0.95    103.6568    0.0317    0.0000    0.0000;
    64    1    0    0    0    0    1    1.0335542    -12.1774707    400    2    1.05    0.95    103.3469    -0.6450    0.0000    0.0000;
    65    1    0    0    0    0    1    1.03353277    -12.1898214    400    2    1.05    0.95    103.3508    -0.6455    0.0000    0.0000;
    66    1    0    0    0    0    1    1.07880648    -13.2138228    220    2    1.11    0.95    104.3236    -0.0107    0.0000    0.0000;
    67    1    0    0    0    0    1    1.0804796    -12.9533989    220    2    1.11    0.95    104.1800    -0.0365    0.0000    0.0000;
    68    1    0    0    0    0    1    1.07269053    -14.9300889    220    2    1.11    0.95    105.8181    -0.0576    0.0000    0.0000;
    69    1    0    0    0    0    1    1.08410343    -4.64174366    220    3    1.11    0.95    100.1491    -0.1679    0.0000    0.0000;
    70    1    7.123    0    0    0    1    1.08261165    -10.0834094    220    3    1.11    0.95    103.0168    0.0335    0.0000    0.0000;
    71    1    8.31    0.933    0    0    1    1.08258548    -10.0862312    220    3    1.11    0.95    103.0192    0.0343    0.0000    0.0000;
    72    1    0    0    0    0    1    1.08496323    -4.47561655    220    3    1.11    0.95    99.8543    0.0998    0.0000    0.0000;
    73    1    0    0    0    0    1    1.08504233    -4.46639555    220    3    1.11    0.95    99.8509    0.0987    0.0000    0.0000;
    74    1    0    0    0    0    1    1.08305271    -4.93309818    220    3    1.11    0.95    100.0408    0.1135    0.0000    0.0000;
    75    1    0    0    0    0    1    1.08300952    -4.93730715    220    3    1.11    0.95    100.0426    0.1140    0.0000    0.0000;
    76    1    0    0    0    0    1    1.08892512    -3.52779922    220    3    1.11    0.95    99.5287    0.0371    0.0000    0.0000;
    77    1    0    0    0    0    1    1.08887539    -3.53600673    220    3    1.11    0.95    99.5330    0.0382    0.0000    0.0000;
    78    2    27    70    0    0    1    1.09091    -3.85435349    220    3    1.11    0.95    99.5068    0.0000    748.3478    0.0000;
    79    2    9    21    0    0    1    1.09034    -4.03657403    220    3    1.11    0.95    99.6306    0.0011    0.0000    0.0000;
    80    1    10.328    2.61    0    0    1    1.0776822    -5.30651935    220    3    1.11    0.95    100.4225    0.2765    0.0000    0.0000;
    81    1    0    0    0    0    1    1.07769485    -5.3051404    220    3    1.11    0.95    100.4220    0.2763    0.0000    0.0000;
    82    2    35    108    0    0    1    1.02993    -3.78520448    400    3    1.05    0.95    99.2008    0.0000    0.0000    0.0000;
    83    1    0    0    0    0    1    1.07842067    -6.71427566    220    3    1.11    0.95    100.5192    0.3124    0.0000    0.0000;
    84    1    0    0    0    0    1    1.08667967    -4.04750648    220    3    1.11    0.95    99.4386    0.0554    0.0000    0.0000;
    85    1    0    0    0    0    1    1.08667074    -4.04954562    220    3    1.11    0.95    99.4405    0.0558    0.0000    0.0000;
    86    1    37.893    12.351    0    0    1    1.08525864    -4.51041688    220    3    1.11    0.95    99.9812    -0.1367    0.0000    0.0000;
    87    1    0    0    0    0    1    1.08523246    -4.51659839    220    3    1.11    0.95    99.9832    -0.1370    0.0000    0.0000;
    88    1    0    0    0    0    1    1.08713659    -4.0243567    220    3    1.11    0.95    99.3740    0.0877    0.0000    0.0000;
    89    1    0    0    0    0    1    1.08711216    -4.02574431    220    3    1.11    0.95    99.3753    0.0883    0.0000    0.0000;
    90    1    0    0    0    0    1    1.0882383    -4.05063259    220    3    1.11    0.95    99.7690    -0.1565    0.0000    0.0000;
    91    1    0    0    0    0    1    1.08821341    -4.05637895    220    3    1.11    0.95    99.7716    -0.1564    0.0000    0.0000;
    92    1    0    0    0    0    1    1.03125379    -2.36223237    400    3    1.05    0.95    99.4873    -0.2606    0.0000    0.0000;
    93    1    0    0    0    0    1    1.03125922    -2.36416694    400    3    1.05    0.95    99.4875    -0.2610    0.0000    0.0000;
    94    1    0    0    0    0    1    1.08940458    -3.76942498    220    3    1.11    0.95    99.0458    0.0213    0.0000    0.0000;
    95    1    0    0    0    0    1    1.08940559    -3.76833572    220    3    1.11    0.95    99.0452    0.0211    0.0000    0.0000;
    96    1    0    0    0    0    1    1.0823322    -5.75697515    220    3    1.11    0.95    100.2120    0.1872    0.0000    0.0000;
    97    1    0    0    0    0    1    1.08232265    -5.76176482    220    3    1.11    0.95    100.2128    0.1879    0.0000    0.0000;
    98    1    16.027    7.274    0    0    1    1.08805654    -4.8404159    220    3    1.11    0.95    100.0477    -0.0303    0.0000    0.0000;
    99    1    7.764    0.258    0    0    1    1.08805547    -4.84568854    220    3    1.11    0.95    100.0498    -0.0308    0.0000    0.0000;
    100    1    0    0    0    0    1    1.08266867    -10.0666185    220    3    1.11    0.95    103.0080    0.0336    0.0000    0.0000;
    101    1    0    0    0    0    1    1.08264423    -10.0662684    220    3    1.11    0.95    103.0072    0.0341    0.0000    0.0000;
    102    1    0    0    0    0    1    1.08219921    -4.62425673    220    3    1.11    0.95    100.1615    0.1646    0.0000    0.0000;
    103    1    0    0    0    0    1    1.08211522    -4.63464054    220    3    1.11    0.95    100.1660    0.1662    0.0000    0.0000;
    104    2    14    40    0    0    1    1.09091    -3.47701155    220    3    1.11    0.95    99.0705    0.0000    851.4354    0.0000;
    105    2    14    40    0    0    1    1.09091    -3.47739504    220    3    1.11    0.95    99.0679    0.0010    0.0000    0.0000;
    106    2    7    18    0    0    1    1.09091    -3.71481202    220    3    1.11    0.95    99.1312    -0.0000    0.0000    0.0000;
    107    2    8    15    0    0    1    1.09091    -3.71473428    220    3    1.11    0.95    99.1331    0.0009    0.0000    0.0000;
    108    1    1.044    0    0    0    1    1.08739221    -5.34648875    220    3    1.11    0.95    100.3152    -0.0853    0.0000    0.0000;
    109    1    1.259    0    0    0    1    1.08742215    -5.35321852    220    3    1.11    0.95    100.3166    -0.0846    0.0000    0.0000;
    110    1    0    0    0    0    1    1.08450241    -6.6061416    220    3    1.11    0.95    101.1866    0.0199    0.0000    0.0000;
    111    1    0    0    0    0    1    1.07499614    -5.35824702    220    3    1.11    0.95    100.4766    0.3798    0.0000    0.0000;
    112    1    0    0    0    0    1    1.075016    -5.35797121    220    3    1.11    0.95    100.4764    0.3794    0.0000    0.0000;
    113    1    0    0    0    0    1    1.07847537    -5.20819466    220    3    1.11    0.95    100.3684    0.2578    0.0000    0.0000;
    114    1    0    0    0    0    1    1.07855733    -5.19788882    220    3    1.11    0.95    100.3643    0.2564    0.0000    0.0000;
    115    1    0    0    0    0    1    1.03132647    -6.18071102    400    3    1.05    0.95    100.4302    -1.3328    0.0000    0.0000;
    116    2    0    0    0    0    1    1.09041404    -4.54606214    220    3    1.11    0.95    99.8878    0.0005    0.0000    0.0000;
    117    2    8    15    0    0    1    1.09046    -4.53908089    220    3    1.11    0.95    99.8858    0.0000    0.0000    0.0000;
    118    2    5.5    10    0    0    1    1.089    -5.91115049    220    3    1.11    0.95    100.8745    -0.0648    0.0000    0.0000;
    119    1    0    0    0    0    1    1.08895024    -5.92345713    220    3    1.11    0.95    100.8794    -0.0642    0.0000    0.0000;
    120    1    0    0    0    0    1    1.0354196    -10.7508761    400    3    1.05    0.95    102.8601    -0.8607    0.0000    0.0000;
    121    1    0    0    0    0    1    1.0354611    -10.7428183    400    3    1.05    0.95    102.8559    -0.8627    0.0000    0.0000;
    122    1    0    0    0    0    1    1.03742112    -6.38476245    400    3    1.05    0.95    100.5772    -2.3753    0.0000    0.0000;
    123    1    0    0    0    0    1    1.03742962    -6.37925355    400    3    1.05    0.95    100.5753    -2.3844    29819.5951    0.0000;
    124    1    0    0    0    0    1    1.08453385    -6.71588297    220    3    1.11    0.95    101.3365    -0.0037    0.0000    0.0000;
    125    2    18.343    21.865    0    0    1    1.09091    -4.10879532    220    3    1.11    0.95    99.5430    0.0000    0.0000    0.0000;
    126    2    28.469    34.292    0    0    1    1.09082    -4.11030334    220    3    1.11    0.95    99.5460    0.0025    0.0000    0.0000;
    127    2    28    66    0    0    1    1.02869    -5.31048254    400    3    1.05    0.95    100.0312    -0.6133    0.0000    0.0000;
    128    1    0    0    0    0    1    1.02870912    -5.31308552    400    3    1.05    0.95    100.0321    -0.6163    0.0000    0.0000;
    129    1    0    0    0    0    1    1.08460673    -4.63876579    220    3    1.11    0.95    100.0378    -0.1398    0.0000    0.0000;
    130    1    0    0    0    0    1    1.08464424    -4.63500185    220    3    1.11    0.95    100.0349    -0.1397    0.0000    0.0000;
    131    1    0    0    0    0    1    1.08667472    -4.31561255    220    3    1.11    0.95    99.8703    -0.1381    0.0000    0.0000;
    132    2    3    18    0    0    1    1.09091    -2.78551969    220    3    1.11    0.95    99.1843    0.0000    860.4661    0.0000;
    133    2    2    6    0    0    1    1.09091    -3.17245265    220    3    1.11    0.95    99.3612    0.0000    428.7704    0.0000;
    134    2    15.447    12.88    0    0    1    1.08882    -11.190372    220    4    1.11    0.95    103.4466    0.0000    532.4155    0.0000;
    135    2    5.255    -0.357    0    0    1    1.0886614    -11.2001432    220    4    1.11    0.95    103.4495    0.0024    0.0000    0.0000;
    136    1    0    0    0    0    1    1.05400546    -13.5246498    220    4    1.11    0.95    102.4302    0.8590    0.0000    0.0000;
    137    1    0    0    0    0    1    1.06246185    -11.6389003    220    4    1.11    0.95    101.2356    0.6887    0.0000    0.0000;
    138    1    0    0    0    0    1    0.994724785    -10.2918579    400    4    1.05    0.95    101.1353    0.6360    0.0000    0.0000;
    139    1    0    0    0    0    1    0.994742476    -10.2932541    400    4    1.05    0.95    101.1362    0.6358    0.0000    0.0000;
    140    1    0    0    0    0    1    1.07136627    -22.4159227    220    4    1.11    0.95    110.4019    0.4199    0.0000    0.0000;
    141    1    0    0    0    0    1    1.07331317    -29.0064849    220    4    1.11    0.95    114.1140    0.4044    0.0000    0.0000;
    142    1    0    0    0    0    1    1.07331317    -29.0064849    220    4    1.11    0.95    114.1140    0.4044    0.0000    0.0000;
    143    1    0    0    0    0    1    1.0783347    -25.8952883    220    4    1.11    0.95    111.2129    0.8957    0.0000    0.0000;
    144    1    0    0    0    0    1    1.06487671    -14.0122587    220    4    1.11    0.95    101.8406    0.4787    0.0000    0.0000;
    145    1    0    0    0    0    1    1.06487671    -14.0122587    220    4    1.11    0.95    101.8406    0.4787    0.0000    0.0000;
    146    2    10.954    -0.465    0    0    1    1.09012    -14.129612    220    4    1.11    0.95    104.8461    0.0247    0.0000    0.0000;
    147    2    10.812    -0.465    0    0    1    1.09009355    -14.1406166    220    4    1.11    0.95    104.8485    0.0260    0.0000    0.0000;
    148    2    11.5    6.86    0    0    1    1.09091    -26.7516744    220    4    1.11    0.95    112.2754    0.0000    1722.1892    0.0000;
    149    1    1.634    3.038    0    0    1    1.09098097    -26.7468421    220    4    1.11    0.95    112.2713    0.0006    0.0000    0.0000;
    150    2    8.087    -0.38    0    0    1    1.03246    -23.2402931    400    4    1.05    0.95    111.2998    -0.2377    0.0000    0.0000;
    151    2    16.174    -0.76    0    0    1    1.0325    -23.2361129    400    4    1.05    0.95    111.2966    -0.2386    0.0000    0.0000;
    152    1    0    0    0    0    1    1.03712388    -22.5984712    220    4    1.11    0.95    111.0636    1.8396    0.0000    0.0000;
    153    1    0    0    0    0    1    1.05437209    -21.1585885    220    4    1.11    0.95    108.1496    1.8476    0.0000    0.0000;
    154    1    0    0    0    0    1    1.05445368    -21.1519568    220    4    1.11    0.95    108.1448    1.8458    0.0000    0.0000;
    155    2    30.555    -3.555    0    0    1    1.09091    -7.33102664    220    4    1.11    0.95    98.9764    0.0000    6606.4137    0.0000;
    156    2    14.679    -3.566    0    0    1    1.09091    -8.48067923    220    4    1.11    0.95    99.5878    0.0000    8240.7403    0.0000;
    157    1    0    0    0    0    1    1.09091    -7.33102664    220    4    1.11    0.95    98.9764    0.0000    0.0000    0.0000;
    158    1    0    0    0    0    1    1.00532992    -6.91139948    400    4    1.05    0.95    99.4370    0.1499    0.0000    0.0000;
    159    2    7.385    -1.783    0    0    1    1.00535    -6.90559113    400    4    1.05    0.95    99.4353    0.1487    0.0000    0.0000;
    160    1    0    0    0    0    1    1.07166554    -29.2247828    220    4    1.11    0.95    114.3792    0.4216    0.0000    0.0000;
    161    1    0    0    0    0    1    1.07166554    -29.2247828    220    4    1.11    0.95    114.3792    0.4216    0.0000    0.0000;
    162    1    0    0    0    0    1    0.993632801    -11.2830742    400    4    1.05    0.95    101.7681    0.8220    0.0000    0.0000;
    163    1    0    0    0    0    1    1.00166055    -9.6712255    400    4    1.05    0.95    101.0197    0.5666    0.0000    0.0000;
    164    1    0    0    0    0    1    1.00164974    -9.67354465    400    4    1.05    0.95    101.0201    0.5666    0.0000    0.0000;
    165    2    4.293    -8.964    0    0    1    1.09084    -14.2339192    220    4    1.11    0.95    104.8666    0.0000    2151.3956    0.0000;
    166    2    23.077    7.176    0    0    1    1.09091    -14.2535862    220    4    1.11    0.95    104.8772    0.0020    0.0000    0.0000;
    167    1    0    0    0    0    1    1.09084    -14.2339192    220    4    1.11    0.95    104.8666    0.0000    0.0000    0.0000;
    168    1    0    0    0    0    1    1.06723695    -27.5015349    220    4    1.11    0.95    113.8019    0.1600    0.0000    0.0000;
    169    1    0    0    0    0    1    1.07245785    -29.1228807    220    4    1.11    0.95    114.2024    0.4189    0.0000    0.0000;
    170    1    0    0    0    0    1    1.06637632    -23.4247049    220    4    1.11    0.95    111.1430    0.5568    0.0000    0.0000;
    171    1    0    0    0    0    1    1.06628437    -23.4179402    220    4    1.11    0.95    111.1408    0.5584    0.0000    0.0000;
    172    1    0    0    0    0    1    0.990081944    -24.5127219    400    4    1.05    0.95    111.4856    0.4789    0.0000    0.0000;
    173    1    0    0    0    0    1    0.990081944    -24.5127219    400    4    1.05    0.95    111.4856    0.4789    0.0000    0.0000;
    174    1    0    0    0    0    1    1.02744612    -18.6990352    220    4    1.11    0.95    107.7998    2.5845    0.0000    0.0000;
    175    1    0    0    0    0    1    1.02745498    -18.6917865    220    4    1.11    0.95    107.7990    2.5843    0.0000    0.0000;
    176    1    0    0    0    0    1    1.06421535    -23.9707844    220    4    1.11    0.95    111.4317    0.5802    0.0000    0.0000;
    177    1    0    0    0    0    1    1.05988408    -13.0033726    220    4    1.11    0.95    102.1816    0.7107    0.0000    0.0000;
    178    1    0    0    0    0    1    1.05992763    -12.9968952    220    4    1.11    0.95    102.1813    0.7101    0.0000    0.0000;
    179    1    0    0    0    0    1    1.0612472    -12.4445699    220    4    1.11    0.95    102.2825    0.6845    0.0000    0.0000;
    180    1    0    0    0    0    1    1.0612472    -12.4445699    220    4    1.11    0.95    102.2825    0.6845    0.0000    0.0000;
    181    1    0    0    0    0    1    1.02488389    -20.2973897    220    4    1.11    0.95    108.4654    2.6634    0.0000    0.0000;
    182    1    0    0    0    0    1    1.04178213    -22.7438778    220    5    1.11    0.95    109.5467    -0.0766    0.0000    0.0000;
    183    1    0    0    0    0    1    1.11249113    -24.5243992    220    5    1.11    0.95    110.9010    -1.5077    3341.3081    0.0000;
    184    1    0    0    0    0    1    1.04016683    -22.7904375    400    5    1.05    0.95    110.5637    -0.5762    0.0000    0.0000;
    185    1    0    0    0    0    1    1.04018472    -22.7948685    400    5    1.05    0.95    110.5665    -0.5760    0.0000    0.0000;
    186    1    0    0    0    0    1    1.02226155    -22.2715824    400    5    1.05    0.95    109.9911    0.0207    0.0000    0.0000;
    187    1    0    0    0    0    1    1.02228855    -22.2757789    400    5    1.05    0.95    109.9940    0.0207    0.0000    0.0000;
    188    1    0    0    0    0    1    1.02246298    -26.1052888    220    5    1.11    0.95    112.0495    0.4732    0.0000    0.0000;
    189    1    0    0    0    0    1    1.02254225    -26.1068267    220    5    1.11    0.95    112.0501    0.4725    0.0000    0.0000;
    190    1    0    0    0    0    1    1.06597802    -23.5994929    220    5    1.11    0.95    109.8131    -0.4616    0.0000    0.0000;
    191    1    0    0    0    0    1    1.06586737    -23.6010222    220    5    1.11    0.95    109.8138    -0.4625    0.0000    0.0000;
    192    1    0    0    0    0    1    0.986832587    -20.8258036    400    5    1.05    0.95    108.9619    0.0646    0.0000    0.0000;
    193    1    0    0    0    0    1    1.04992688    -21.9098859    220    5    1.11    0.95    109.2100    0.0979    0.0000    0.0000;
    194    1    0    0    0    0    1    1.04999605    -21.9059821    220    5    1.11    0.95    109.2090    0.0981    0.0000    0.0000;
    195    1    0    0    0    0    1    1.00910561    -24.2454164    400    5    1.05    0.95    111.1787    0.1111    0.0000    0.0000;
    196    1    0    0    0    0    1    1.00905173    -24.2503674    400    5    1.05    0.95    111.1820    0.1117    0.0000    0.0000;
    197    1    0    0    0    0    1    1.05420956    -26.7755522    220    5    1.11    0.95    112.6796    0.3221    0.0000    0.0000;
    198    1    0    0    0    0    1    1.05424639    -26.7686686    220    5    1.11    0.95    112.6765    0.3220    0.0000    0.0000;
    199    1    0    0    0    0    1    1.04432355    -20.8887157    400    5    1.05    0.95    109.5722    -0.3075    0.0000    0.0000;
    200    1    0    0    0    0    1    1.04433773    -20.8832653    400    5    1.05    0.95    109.5718    -0.3087    0.0000    0.0000;
    201    1    0    0    0    0    1    1.03891281    -24.7123025    220    5    1.11    0.95    111.4262    0.5281    0.0000    0.0000;
    202    1    0    0    0    0    1    1.03885549    -24.7103293    220    5    1.11    0.95    111.4280    0.5310    0.0000    0.0000;
    203    1    0    0    0    0    1    1.0357952    -22.8044252    220    5    1.11    0.95    110.7768    1.0775    0.0000    0.0000;
    204    1    0    0    0    0    1    1.0357281    -22.819021    220    5    1.11    0.95    110.7830    1.0769    0.0000    0.0000;
    205    2    0    0    0    0    1    1.0325    -20.8840464    400    5    1.05    0.95    109.4371    0.0004    0.0000    0.0000;
    206    2    0    0    0    0    1    1.0325    -20.8836737    400    5    1.05    0.95    109.4373    0.0000    0.0000    0.0000;
    207    1    0    0    0    0    1    1.08028836    -26.4554126    220    5    1.11    0.95    112.2907    -0.8014    0.0000    0.0000;
    208    1    0    0    0    0    1    1.08033186    -26.449327    220    5    1.11    0.95    112.2865    -0.8038    0.0000    0.0000;
    209    1    8.101    1.5    0    0    1    1.05070765    -24.384519    110    1    1.12    0.95    112.0290    -0.1334    0.0000    0.0000;
    210    1    8.101    1    0    0    1    1.06016089    -33.4110527    110    1    1.12    0.95    120.3339    1.5128    0.0000    0.0000;
    211    1    9.114    2    0    0    1    1.05452948    -21.8007852    110    1    1.12    0.95    107.5431    2.2480    0.0000    0.0000;
    212    1    8.911    7.8    0    0    1    0.982918586    -27.0970244    110    1    1.12    0.95    117.0338    5.2337    0.0000    0.0000;
    213    1    4.05    1    0    0    1    1.04600078    -2.06430723    110    1    1.12    0.95    99.1423    0.4609    0.0000    0.0000;
    214    1    9.619    2.5    0    0    1    1.06518553    -3.95722568    110    1    1.12    0.95    99.3438    0.4814    0.0000    0.0000;