function mpc = case3120sp_resqlim
%CASE3120SP_RESQLIM

%% MATPOWER Case Format : Version 2
mpc.version = '2';

%%-----  Power Flow Data  -----%%
%% system MVA base
mpc.baseMVA = 100;

%% bus data
%	bus_i	type	Pd	Qd	Gs	Bs	area	Vm	Va	baseKV	zone	Vmax	Vmin
mpc.bus = [
	1	1	0	0	0	0	1	0.0261236896	-59.551001	220	1	1.11	0.95;
	2	1	0	0	0	0	1	27.8047623	-305.638172	220	1	1.11	0.95;
	3	1	0	0	0	0	1	0.200710927	-34.3081547	220	1	1.11	0.95;
	4	1	0	0	0	0	1	0.131578559	-22.0803264	220	1	1.11	0.95;
	5	1	0	0	0	0	1	0.0138439369	-45.021378	220	1	1.11	0.95;
	6	1	0	0	0	0	1	1.45317913	-269.142729	220	1	1.11	0.95;
	7	1	0	0	0	0	1	1.0571974	-180.413114	220	1	1.11	0.95;
	8	1	0	0	0	0	1	0.130910525	12.7179168	220	1	1.11	0.95;
	9	1	0	0	0	0	1	1.05774767	-198.97935	220	1	1.11	0.95;
	10	1	0	0	0	0	1	0.218227976	-294.747872	220	1	1.11	0.95;
	11	1	0	0	0	0	1	0.200805104	-245.741474	400	1	1.05	0.95;
	12	1	0	0	0	0	1	0.130352899	-93.6123638	400	1	1.05	0.95;
	13	1	0	0	0	0	1	1.31218006	-115.709305	400	1	1.05	0.95;
	14	1	0	0	0	0	1	0.0437465205	-66.6827388	220	1	1.11	0.95;
	15	1	0	0	0	0	1	0.00711546013	-10.4914241	220	1	1.11	0.95;
	16	1	0	0	0	0	1	2.33946319	-58.4019387	220	1	1.11	0.95;
	17	1	0	0	0	0	1	0.222656618	-242.171789	220	1	1.11	0.95;
	18	1	0	0	0	0	1	2.48137498	-276.064033	400	1	1.05	0.95;
	19	1	0	0	0	0	1	2.46099734	-280.400883	400	1	1.05	0.95;
	20	1	0	0	0	0	1	1.82451021	-282.049433	400	1	1.05	0.95;
	21	1	0	0	0	0	1	2.64092679	-260.926593	400	1	1.05	0.95;
	22	1	10	20	0	0	1	0.25828097	-185.090866	220	1	1.11	0.95;
	23	1	10	20	0	0	1	0.313045813	-180.363112	220	1	1.11	0.95;
	24	1	0	0	0	0	1	0.227158757	-124.454691	220	1	1.11	0.95;
	25	1	0	0	0	0	1	0.0550147786	-238.297807	220	1	1.11	0.95;
	26	1	0	0	0	0	1	0.00803512335	-84.2860895	220	1	1.11	0.95;
	27	1	0	0	0	0	1	0.0137591008	-239.545659	220	1	1.11	0.95;
	28	1	0	0	0	0	1	0.13972799	-239.569316	220	1	1.11	0.95;
	29	1	0	0	0	0	1	0.0827531465	-262.021934	220	1	1.11	0.95;
	30	1	0	0	0	0	1	0.480066092	-247.255289	220	1	1.11	0.95;
	31	1	0	0	0	0	1	0.458488708	-267.543701	220	1	1.11	0.95;
	32	1	0	0	0	0	1	0.125186243	-142.542536	400	1	1.05	0.95;
	33	1	0	0	0	0	1	0.00223278995	-251.875244	400	1	1.05	0.95;
	34	1	0	0	0	0	1	0.043170166	-295.916174	400	1	1.05	0.95;
	35	1	32.16	52.07	0	0	1	3.98392169	-111.024134	220	1	1.11	0.95;
	36	1	46.36	92.07	0	0	1	30.0932818	38.0041902	220	1	1.11	0.95;
	37	1	60	120	0	0	1	1.82423692	0	400	1	1.05	0.95;
	38	1	60	120	0	0	1	1.4267161	-163.38895	400	1	1.05	0.95;
	39	1	0	0	0	0	1	0.00379062664	-167.473517	220	1	1.11	0.95;
	40	1	0	0	0	0	1	0.268012674	-81.1435208	220	1	1.11	0.95;
	41	1	0	0	0	0	1	1.25289506	-257.464011	400	1	1.05	0.95;
	42	1	0	0	0	0	1	0.0781818612	-168.714517	400	1	1.05	0.95;
	43	1	0	0	0	0	1	0.0552425132	-38.987127	220	1	1.11	0.95;
	44	1	0	0	0	0	1	0.592776566	-303.731126	400	1	1.05	0.95;
	45	1	0	0	0	0	1	0.0313326262	-200.22704	220	1	1.11	0.95;
	46	1	0	0	0	0	1	0.0192767674	-83.6395061	220	1	1.11	0.95;
	47	1	0	0	0	0	1	0.412503303	-224.832389	220	2	1.11	0.95;
	48	1	0	0	0	0	1	0.0948818348	-110.093111	220	2	1.11	0.95;
	49	1	0	0	0	0	1	0.16996363	-36.0930361	220	2	1.11	0.95;
	50	1	0	0	0	0	1	0.174603489	-108.975846	220	2	1.11	0.95;
	51	1	0	0	0	0	1	0.30700381	-242.830724	220	2	1.11	0.95;
	52	1	3.97	1	0	0	1	0.58776297	-116.831672	220	2	1.11	0.95;
	53	1	0	0	0	0	1	0.0186574698	-273.002273	220	2	1.11	0.95;
	54	1	0	0	0	0	1	5.08758167	-133.118909	400	2	1.05	0.95;
	55	1	13	30	0	0	1	0.0824291119	-201.175639	220	2	1.11	0.95;
	56	1	39.35	90.07	0	0	1	0.0712378207	-48.0203155	220	2	1.11	0.95;
	57	1	26	60	0	0	1	0.0617843944	-127.459734	220	2	1.11	0.95;
	58	1	26	50	0	0	1	0.118078451	-16.9902609	400	2	1.05	0.95;
	59	1	26	50	0	0	1	0.00169260506	-227.533727	400	2	1.05	0.95;
	60	1	0	0	0	0	1	1.24066744	-125.575385	220	2	1.11	0.95;
	61	1	0	0	0	0	1	0.0434177562	-109.829881	400	2	1.05	0.95;
	62	1	0	0	0	0	1	0.0169026923	40.8659555	400	2	1.05	0.95;
	63	1	0	0	0	0	1	7.40640884	-271.757798	400	2	1.05	0.95;
	64	1	0	0	0	0	1	0.00574605384	-189.456175	220	2	1.11	0.95;
	65	1	0	0	0	0	1	0.0101751706	-304.501788	220	2	1.11	0.95;
	66	1	0	0	0	0	1	0.113554634	32.7681808	400	2	1.05	0.95;
	67	1	0	0	0	0	1	0.012806255	-267.838766	400	2	1.05	0.95;
	68	1	13	30	0	0	1	0.0843178995	-81.7319429	220	2	1.11	0.95;
	69	1	26	60	0	0	1	0.378351843	-169.293209	220	2	1.11	0.95;
	70	2	0	2.25	0	0	1	1.64938083	-19.2967703	400	2	1.05	0.95;
	71	1	26	60	0	0	1	0.601178364	-80.3222576	400	2	1.05	0.95;
	72	1	0	0	0	0	1	1.21373723	-83.7102342	220	2	1.11	0.95;
	73	1	0	0	0	0	1	0.914431869	-18.3405903	220	2	1.11	0.95;
	74	1	0	0	0	0	1	0.179102902	-4.0017151	220	2	1.11	0.95;
	75	1	0	0	0	0	1	0.0662176544	-103.673719	220	2	1.11	0.95;
	76	1	0	0	0	0	1	0.139729736	-191.640725	220	2	1.11	0.95;
	77	1	0	0	0	0	1	0.154436062	-128.968466	220	2	1.11	0.95;
	78	1	0	0	0	0	1	0.0165530631	-166.29876	400	2	1.05	0.95;
	79	1	0	0	0	0	1	0.0656565745	-314.518872	400	2	1.05	0.95;
	80	1	0	0	0	0	1	0.310948272	-98.7815676	220	2	1.11	0.95;
	81	1	0	0	0	0	1	0.0677643206	4.72307316	220	2	1.11	0.95;
	82	1	0	0	0	0	1	1.34199459	-156.395056	220	2	1.11	0.95;
	83	1	0	0	0	0	1	23.4323477	-94.5452876	220	3	1.11	0.95;
	84	1	6.41	2.01	0	0	1	0.103659726	-57.6565985	220	3	1.11	0.95;
	85	1	13.89	5.02	0	0	1	0.00221052592	5.68525393	220	3	1.11	0.95;
	86	1	0	0	0	0	1	1.19074936	-22.8880205	220	3	1.11	0.95;
	87	1	0	0	0	0	1	6.74597296	-157.078818	220	3	1.11	0.95;
	88	1	0	0	0	0	1	0.00111489781	-223.127312	220	3	1.11	0.95;
	89	1	0	0	0	0	1	0.436187562	-260.958764	220	3	1.11	0.95;
	90	1	0	0	0	0	1	24.8122531	-15.3169146	220	3	1.11	0.95;
	91	1	0	0	0	0	1	14.7540214	-53.932771	220	3	1.11	0.95;
	92	1	28	70	0	0	1	5.51823862	-239.428097	220	3	1.11	0.95;
	93	1	28	68	0	0	1	53.3262324	-58.6198398	220	3	1.11	0.95;
	94	1	2.78	1.91	0	0	1	0.031969046	-182.548305	220	3	1.11	0.95;
	95	1	0	0	0	0	1	0.135614765	-47.7008775	220	3	1.11	0.95;
	96	1	32	142	0	0	1	0.527052047	-206.282451	400	3	1.05	0.95;
	97	1	0	0	0	0	1	0.153711487	-292.678616	400	3	1.05	0.95;
	98	1	0	0	0	0	1	5.50133013	-304.843394	220	3	1.11	0.95;
	99	1	0	0	0	0	1	4.92803992	6.36801085	220	3	1.11	0.95;
	100	1	0	0	0	0	1	4.76476687	-224.854175	220	3	1.11	0.95;
	101	1	38.8	-2.7	0	0	1	0.0245676153	40.7593925	220	3	1.11	0.95;
	102	1	0	0	0	0	1	0.0319600399	-231.910778	220	3	1.11	0.95;
	103	1	0	0	0	0	1	0.974057602	-280.077086	220	3	1.11	0.95;
	104	1	0	0	0	0	1	0.939991269	-288.322628	220	3	1.11	0.95;
	105	1	0	0	0	0	1	2.39646025	7.21174773	220	3	1.11	0.95;
	106	1	0	0	0	0	1	10.1670778	-144.420523	220	3	1.11	0.95;
	107	1	0	0	0	0	1	0.239263466	-283.957998	400	3	1.05	0.95;
	108	1	0	0	0	0	1	0.0701560384	-66.5059665	400	3	1.05	0.95;
	109	1	0	0	0	0	1	0.596370662	-206.878786	220	3	1.11	0.95;
	110	1	0	0	0	0	1	0.20515983	-39.4983756	220	3	1.11	0.95;
	111	1	0	0	0	0	1	3.08789181	-32.7849562	220	3	1.11	0.95;
	112	1	0	0	0	0	1	1.6051606	-240.348564	220	3	1.11	0.95;
	113	1	38.41	12.71	0	0	1	0.184290301	36.5482686	220	3	1.11	0.95;
	114	1	0	0	0	0	1	0.0284423151	-293.545709	220	3	1.11	0.95;
	115	1	0	0	0	0	1	0.026204127	-49.0912508	220	3	1.11	0.95;
	116	1	0	0	0	0	1	0.0709798805	-142.742374	220	3	1.11	0.95;
	117	1	0	0	0	0	1	12.0426867	-175.131877	220	3	1.11	0.95;
	118	1	0	0	0	0	1	18.2319951	32.409017	220	3	1.11	0.95;
	119	1	10	44	0	0	1	0.939416513	-292.121431	220	3	1.11	0.95;
	120	1	10	44	0	0	1	1.89227776	-88.5496987	220	3	1.11	0.95;
	121	1	7	18	0	0	1	4.65097988	-154.309305	220	3	1.11	0.95;
	122	1	8	21	0	0	1	0.187896542	-223.852288	220	3	1.11	0.95;
	123	1	0	0	0	0	1	0.238354857	-221.194003	220	3	1.11	0.95;
	124	1	59.4	11.61	0	0	1	0.00822168045	-37.4142407	220	3	1.11	0.95;
	125	1	0	0	0	0	1	6.95210925	-130.485176	220	3	1.11	0.95;
	126	1	0	0	0	0	1	4.53486111	-178.492332	220	3	1.11	0.95;
	127	1	0	0	0	0	1	0.144059851	-75.5753878	220	3	1.11	0.95;
	128	1	0	0	0	0	1	0.942996054	-237.710433	220	3	1.11	0.95;
	129	1	0	0	0	0	1	0.437787582	-232.1573	220	3	1.11	0.95;
	130	1	0	0	0	0	1	15.167725	-28.7174024	400	3	1.05	0.95;
	131	1	0	0	0	0	1	15.167725	-28.7174024	400	3	1.05	0.95;
	132	2	0	1.78	0	0	1	9.73775675	-171.472069	220	3	1.11	0.95;
	133	1	9	20	0	0	1	6.99295782	-56.8790473	220	3	1.11	0.95;
	134	1	6	15	0	0	1	0.477172362	-297.518687	220	3	1.11	0.95;
	135	1	0	0	0	0	1	0.432626385	27.2569658	220	3	1.11	0.95;
	136	1	0	0	0	0	1	0.00333767202	-163.669297	400	3	1.05	0.95;
	137	1	0	0	0	0	1	0.0889011827	-300.378555	400	3	1.05	0.95;
	138	1	0	0	0	0	1	1.43481004	-204.846514	400	3	1.05	0.95;
	139	1	0	0	0	0	1	1.16304654	-220.808261	400	3	1.05	0.95;
	140	1	0	0	0	0	1	0.0404169189	-148.573101	220	3	1.11	0.95;
	141	1	0	0	0	0	1	0.0456407883	-22.4003938	220	3	1.11	0.95;
	142	1	18.2	37.21	0	0	1	3.57567912	-245.360811	220	3	1.11	0.95;
	143	1	41.52	73.01	0	0	1	0.551602249	-163.131837	220	3	1.11	0.95;
	144	1	28	66	0	0	1	0.319823515	-54.6290196	400	3	1.05	0.95;
	145	1	0	0	0	0	1	0.437810222	-25.2336652	400	3	1.05	0.95;
	146	1	0	0	0	0	1	0.0216733906	-297.084738	220	3	1.11	0.95;
	147	1	0	0	0	0	1	1.13844774	-147.037177	220	3	1.11	0.95;
	148	1	0	0	0	0	1	29.2360604	-264.674837	220	3	1.11	0.95;
	149	1	0	0	0	0	1	27.7834299	-175.336827	220	3	1.11	0.95;
	150	2	0	-0.79	0	0	1	7.80161949	-155.89234	220	3	1.11	0.95;
	151	2	0	-0.79	0	0	1	44.8326406	-288.653956	220	3	1.11	0.95;
	152	1	7.7	20	0	0	1	0.0333611488	-152.548217	220	4	1.11	0.95;
	153	1	7.8	20	0	0	1	0.0326731679	13.560352	220	4	1.11	0.95;
	154	1	0	0	0	0	1	0.334081735	-20.9604694	220	4	1.11	0.95;
	155	1	0	0	0	0	1	0.676674187	-236.210267	220	4	1.11	0.95;
	156	1	0	0	0	0	1	0.245667191	18.208327	220	4	1.11	0.95;
	157	1	0	0	0	0	1	0.0141627316	-48.3650645	220	4	1.11	0.95;
	158	1	0	0	0	0	1	0.00771850167	-269.807927	220	4	1.11	0.95;
	159	1	0	0	0	0	1	0.238392797	-21.8379612	400	4	1.05	0.95;
	160	1	0	0	0	0	1	0.273986043	-4.33303139	400	4	1.05	0.95;
	161	1	0	0	0	0	1	2.08814673	8.92663551	220	4	1.11	0.95;
	162	1	0	0	0	0	1	0.0149680876	41.3105559	220	4	1.11	0.95;
	163	1	0	0	0	0	1	0.0149680876	41.3105561	220	4	1.11	0.95;
	164	1	0	0	0	0	1	8.44203136	-139.36173	220	4	1.11	0.95;
	165	1	0	0	0	0	1	8.44203136	-139.36173	220	4	1.11	0.95;
	166	1	0	0	0	0	1	1.65537754	-304.895998	220	4	1.11	0.95;
	167	2	0	-13.01	0	0	1	0.00260327259	-164.975241	220	4	1.11	0.95;
	168	1	0	0	0	0	1	0.000981030469	0.037291592	220	4	1.11	0.95;
	169	1	12	30	0	0	1	0.113244081	-205.821626	220	4	1.11	0.95;
	170	1	19.91	36.57	0	0	1	0.0415955092	-137.565285	220	4	1.11	0.95;
	171	1	12	30	0	0	1	0.00985269766	-182.066533	400	4	1.05	0.95;
	172	1	12	30	0	0	1	0.0077754134	-254.615927	400	4	1.05	0.95;
	173	1	0	0	0	0	1	0.433398778	21.7069857	220	4	1.11	0.95;
	174	1	0	0	0	0	1	0.0966649943	-77.9023715	220	4	1.11	0.95;
	175	1	0	0	0	0	1	0.00494017272	-182.314895	220	4	1.11	0.95;
	176	1	0	0	0	0	1	1.11690237	-66.6726614	220	4	1.11	0.95;
	177	1	30.5	64.2	0	0	1	0.153353114	-121.895035	220	4	1.11	0.95;
	178	1	58.9	96	0	0	1	0.0369149236	-130.334066	220	4	1.11	0.95;
	179	1	0	0	0	0	1	0.0369138369	-130.318276	220	4	1.11	0.95;
	180	1	26.5	64.2	0	0	1	0.364989349	-46.5445462	400	4	1.05	0.95;
	181	1	0	0	0	0	1	0.314064203	-91.8701932	400	4	1.05	0.95;
	182	1	0	0	0	0	1	1.53035141	-101.711926	220	4	1.11	0.95;
	183	1	0	0	0	0	1	1.53035141	-101.711926	220	4	1.11	0.95;
	184	1	0	0	0	0	1	68.9079208	-161.539295	400	4	1.05	0.95;
	185	1	0	0	0	0	1	26.8646844	-273.227114	400	4	1.05	0.95;
	186	1	0	0	0	0	1	0.0206819477	-68.6745724	400	4	1.05	0.95;
	187	1	0	0	0	0	1	0.394444341	-88.121559	400	4	1.05	0.95;
	188	1	12	30	0	0	1	0.0319657677	2.35069587	220	4	1.11	0.95;
	189	1	23.8	60	0	0	1	0.0112010284	-70.3193703	220	4	1.11	0.95;
	190	1	38	64	0	0	1	2.56420117	-60.2617019	400	4	1.05	0.95;
	191	1	0	0	0	0	1	0.0211680939	-110.109626	220	4	1.11	0.95;
	192	1	0	0	0	0	1	0.0144917165	-242.048666	220	4	1.11	0.95;
	193	1	0	0	0	0	1	0.0134992565	21.8295953	220	4	1.11	0.95;
	194	1	0	0	0	0	1	0.00674689417	-108.735326	220	4	1.11	0.95;
	195	1	0	0	0	0	1	0.407123185	-26.950192	220	4	1.11	0.95;
	196	1	0	0	0	0	1	0.0195528376	-3.89040296	220	4	1.11	0.95;
	197	1	0	0	0	0	1	5.16655158	-194.552185	400	4	1.05	0.95;
	198	1	0	0	0	0	1	0.371832417	-297.175387	220	4	1.11	0.95;
	199	1	0	0	0	0	1	0.0400201243	-68.8596733	220	4	1.11	0.95;
	200	1	0	0	0	0	1	1.67278656	-296.64663	220	4	1.11	0.95;
	201	1	0	0	0	0	1	0.153857593	-34.6415787	220	4	1.11	0.95;
	202	1	0	0	0	0	1	0.759432319	-190.040674	220	4	1.11	0.95;
	203	1	0	0	0	0	1	42.5949754	-10.7827437	220	4	1.11	0.95;
	204	2	0	-7.17	0	0	1	0.0365095684	-252.298525	220	4	1.11	0.95;
	205	1	0	0	0	0	1	0.00195943773	-136.799935	220	4	1.11	0.95;
	206	1	0	0	0	0	1	0.102746542	-41.1152746	220	4	1.11	0.95;
	207	1	0	0	0	0	1	0.219548111	-138.121578	220	5	1.11	0.95;
	208	1	0	0	0	0	1	0.0116804582	-245.783035	220	5	1.11	0.95;
	209	1	0	0	0	0	1	0.000440084291	-49.297458	400	5	1.05	0.95;
	210	1	0	0	0	0	1	5.64168768e-05	-187.186069	400	5	1.05	0.95;
	211	1	0	0	0	0	1	0.00201890306	-135.289729	400	5	1.05	0.95;
	212	1	0	0	0	0	1	0.0239696932	-293.256327	400	5	1.05	0.95;
	213	1	0	0	0	0	1	0.000228161288	-99.8298453	400	5	1.05	0.95;
	214	1	0	0	0	0	1	0.0189248002	-31.9432804	220	5	1.11	0.95;
	215	1	0	0	0	0	1	0.00906553494	-185.791919	220	5	1.11	0.95;
	216	1	0	0	0	0	1	0.000124366924	-48.90545	220	5	1.11	0.95;
	217	1	0	0	0	0	1	0.00650920705	-102.075501	220	5	1.11	0.95;
	218	1	0	0	0	0	1	0.420956242	-156.09614	400	5	1.05	0.95;
	219	1	0	0	0	0	1	0.420959317	-155.924944	400	5	1.05	0.95;
	220	1	0	0	0	0	1	0.92553919	33.2813428	400	5	1.05	0.95;
	221	1	0	0	0	0	1	0.0163068064	43.6983594	220	5	1.11	0.95;
	222	1	0	0	0	0	1	0.0233100274	-298.086638	220	5	1.11	0.95;
	223	1	0	0	0	0	1	0.00833636632	-153.897747	220	5	1.11	0.95;
	224	1	0	0	0	0	1	0.324762105	-266.459247	220	5	1.11	0.95;
	225	1	0	0	0	0	1	0.111756411	-96.7559154	400	5	1.05	0.95;
	226	1	0	0	0	0	1	0.0741856762	-164.02101	400	5	1.05	0.95;
	227	1	0	0	0	0	1	0.000115221267	-24.0783659	400	5	1.05	0.95;
	228	1	0	0	0	0	1	0.0315037857	-126.424067	220	5	1.11	0.95;
	229	1	0	0	0	0	1	0.0905162988	-264.28881	220	5	1.11	0.95;
	230	1	0	0	0	70	1	0.00291792313	3.20153566	400	5	1.05	0.95;
	231	1	0	0	0	0	1	0.00198087651	-273.765054	400	5	1.05	0.95;
	232	1	0	0	0	0	1	0.00520103449	-309.140588	220	5	1.11	0.95;
	233	1	0	0	0	0	1	1.07804539e-06	-238.042925	220	5	1.11	0.95;
	234	1	0	0	0	0	1	0.00655951663	-6.68896843	220	5	1.11	0.95;
	235	1	0	0	0	0	1	0.000218539611	-61.2794033	220	5	1.11	0.95;
	236	1	11	40	0	0	1	0.0306872065	-286.86853	400	5	1.05	0.95;
	237	1	5	10	0	0	1	0.00930862257	-117.718291	400	5	1.05	0.95;
	238	1	0	0	0	0	1	0.00104721593	-121.032493	220	5	1.11	0.95;
	239	1	0	0	0	0	1	0.00025581126	-26.1733023	220	5	1.11	0.95;
	240	1	8	20	0	0	0	6.26670299	32.0013308	220	0	1.11	0.95;
	241	1	9.86	2	0	0	1	0.129442011	-83.6356876	110	1	1.12	0.95;
	242	1	6.41	0	0	0	1	0.306728688	-135.971652	110	1	1.12	0.95;
	243	1	9.37	0.6	0	0	1	0.194643051	-117.915958	110	1	1.12	0.95;
	244	1	7.25	4	0	0	1	0.0486860275	-75.3534857	110	1	1.12	0.95;
	245	1	0	0	0	0	1	0.0169977581	35.6243953	110	1	1.12	0.95;
	246	1	2.18	2.4	0	0	1	0.0007429472	-146.087689	110	1	1.12	0.95;
	247	1	5.12	4.91	0	0	1	0.0135812244	-260.326156	110	1	1.12	0.95;
	248	1	3.65	0.9	0	0	1	0.530303902	-120.373717	110	1	1.12	0.95;
	249	1	3.85	1	0	0	1	0.00566728863	-38.1699595	110	1	1.12	0.95;
	250	2	4.44	-1.76	0	0	1	0.0875798949	-119.825316	110	1	1.12	0.95;
	251	1	2.5	0	0	0	1	0.0322367354	-120.329208	110	1	1.12	0.95;
	252	1	17.76	1.2	0	0	1	0.351437055	-206.796402	110	1	1.12	0.95;
	253	1	12.33	2.1	0	0	1	0.2027681	17.6293253	110	1	1.12	0.95;
	254	1	7.41	0.99	0	0	1	0.0627006579	-273.422502	110	1	1.12	0.95;
	255	1	4.93	0	0	0	1	0.285205338	-45.9945642	110	1	1.12	0.95;
	256	1	4.93	0	0	0	1	0.724081961	13.4604167	110	1	1.12	0.95;
	257	1	14.8	2.5	0	0	1	1.34735887	23.1887751	110	1	1.12	0.95;
	258	1	5.42	1.1	0	0	1	0.0786720045	-28.0048197	110	1	1.12	0.95;
	259	1	4.44	1	0	0	1	0.0579387668	-256.65991	110	1	1.12	0.95;
	260	1	2.96	0.5	0	0	1	0.0194551439	-178.678968	110	1	1.12	0.95;
	261	1	5.42	0.6	0	0	1	0.0731359433	-20.46406	110	1	1.12	0.95;
	262	1	0	0	0	0	1	0.000191080373	-195.935463	110	1	1.12	0.95;
	263	1	2.96	0.9	0	0	1	0.197467978	-148.197618	110	1	1.12	0.95;
	264	1	5.33	1.5	0	0	1	0.101710041	16.2079679	110	1	1.12	0.95;
	265	1	3.45	0.7	0	0	1	0.00422116749	-229.322829	110	1	1.12	0.95;
	266	1	3.45	0.7	0	0	1	0.000911484939	-167.627102	110	1	1.12	0.95;
	267	1	4.34	1.8	0	0	1	0.309535501	-106.800428	110	1	1.12	0.95;
	268	1	4.34	1.8	0	0	1	0.156497964	-231.483408	110	1	1.12	0.95;
	269	1	6.25	2	0	0	1	0.74332331	-14.7033797	110	1	1.12	0.95;
	270	1	6.69	3	0	0	1	0.0307800429	-288.885305	110	1	1.12	0.95;
	271	1	0.49	0.2	0	0	1	0.000187069309	-2.57522278	110	1	1.12	0.95;
	272	1	0.79	0.2	0	0	1	0.0411531464	-142.899126	110	1	1.12	0.95;
	273	1	1.18	-0.9	0	0	1	0.136404575	-149.393586	110	1	1.12	0.95;
	274	1	4.74	0.5	0	0	1	0.0317699755	-146.985921	110	1	1.12	0.95;
	275	1	0	0	0	0	1	0.00284960723	-14.6327094	110	1	1.12	0.95;
	276	1	3.16	0.1	0	0	1	0.0173748375	-84.8911063	110	1	1.12	0.95;
	277	1	7.4	1.3	0	0	1	0.201141205	-5.56330796	110	1	1.12	0.95;
	278	1	10.36	1.3	0	0	1	0.163843934	-70.0623341	110	1	1.12	0.95;
	279	1	2.27	1.11	0	0	1	0.00267974607	-125.327499	110	1	1.12	0.95;
	280	1	5.33	1.6	0	0	1	0.0490132096	-91.531627	110	1	1.12	0.95;
	281	1	2.07	0.1	0	0	1	0.0216022215	-9.68731872	110	1	1.12	0.95;
	282	2	1.87	0.09	0	0	1	0.00223814626	-124.472681	110	1	1.12	0.95;
	283	2	1.87	0.31	0	0	1	0.0827900531	-214.59579	110	1	1.12	0.95;
	284	1	8.58	3	0	0	1	0.0560263381	-211.004541	110	1	1.12	0.95;
	285	1	1.58	0.4	0	0	1	0.00400426218	34.3514366	110	1	1.12	0.95;
	286	1	4.44	1.1	0	0	1	0.017347954	-89.8821057	110	1	1.12	0.95;
	287	1	5.33	0.5	0	0	1	0.0176518462	-250.445018	110	1	1.12	0.95;
	288	1	4.64	0.4	0	0	1	0.0209777545	8.92581883	110	1	1.12	0.95;
	289	1	13.89	7.76	0	0	1	0.0357317032	-79.575804	110	1	1.12	0.95;
	290	1	19.52	11.23	0	0	1	0.00864698161	-260.315023	110	1	1.12	0.95;
	291	1	6.81	0.5	0	0	1	0.00284540058	-65.6335828	110	1	1.12	0.95;
	292	1	9.57	3.84	0	0	1	0.000699519653	12.6121939	110	1	1.12	0.95;
	293	1	0	0	0	0	1	0.0149023768	12.7750752	110	1	1.12	0.95;
	294	1	8.38	0.8	0	0	1	1.12639871	-117.761452	110	1	1.12	0.95;
	295	1	0	0	0	0	1	0.657225627	-128.77339	110	1	1.12	0.95;
	296	1	3.95	0.4	0	0	1	0.101475705	-296.597512	110	1	1.12	0.95;
	297	1	5.42	0.6	0	0	1	0.0142533948	-288.165397	110	1	1.12	0.95;
	298	1	2.47	0.3	0	0	1	0.0105524611	41.0128233	110	1	1.12	0.95;
	299	1	0	0	0	0	1	0.0471394958	-34.2799533	110	1	1.12	0.95;
	300	1	0.49	0.2	0	0	1	0.037148138	-98.5924093	110	1	1.12	0.95;
	301	1	0.17	0.3	0	0	1	0.0421723274	-248.384502	110	1	1.12	0.95;
	302	1	0.06	0.1	0	0	1	0.0334326846	-168.980513	110	1	1.12	0.95;
	303	1	5.92	0.7	0	0	1	0.810508048	-266.054015	110	1	1.12	0.95;
	304	1	0.3	0.1	0	0	1	1.55622743	-261.225308	110	1	1.12	0.95;
	305	1	0.4	0.1	0	0	1	0.650467708	-248.05136	110	1	1.12	0.95;
	306	1	10.06	7.01	0	0	1	4.31264057	-221.566324	110	1	1.12	0.95;
	307	1	0.49	0.2	0	0	1	0.428150816	-64.9758385	110	1	1.12	0.95;
	308	1	8.09	1.3	0	0	1	0.00324441467	-63.6571477	110	1	1.12	0.95;
	309	1	4.74	0.4	0	0	1	0.0283632667	-181.631156	110	1	1.12	0.95;
	310	1	4.74	1.74	0	0	1	0.0222528894	-2.97066711	110	1	1.12	0.95;
	311	1	2.86	-1.4	0	0	1	4.16608	-237.171645	110	1	1.12	0.95;
	312	1	2.86	-1.4	0	0	1	4.19765704	-220.322608	110	1	1.12	0.95;
	313	1	3.08	2	0	0	1	0.0903469044	-312.348881	110	1	1.12	0.95;
	314	1	0	0	0	0	1	0.197145718	35.6952154	110	1	1.12	0.95;
	315	1	0	0	0	0	1	0.0154881962	15.4670622	110	1	1.12	0.95;
	316	1	20	40	0	0	1	1.81855615	-305.969038	24	1	1.12	0.95;
	317	1	4.93	1	0	0	1	0.0171712833	24.5908461	110	1	1.12	0.95;
	318	1	2.96	0.7	0	0	1	0.00337960998	-21.7683165	110	1	1.12	0.95;
	319	1	3.95	1	0	0	1	1.70620275	-241.02301	110	1	1.12	0.95;
	320	1	1.48	0.2	0	0	1	0.349138105	-44.7408082	110	1	1.12	0.95;
	321	1	0	0	0	45	1	1.32291202e-06	-225.110416	16	1	1.12	0.95;
	322	2	0	-3.42	0	0	1	0.00490830538	-97.9126209	110	1	1.12	0.95;
	323	1	5.42	1	0	0	1	0.0886195344	-185.588421	110	1	1.12	0.95;
	324	1	6.41	1	0	0	1	0.124069378	-156.599899	110	1	1.12	0.95;
	325	1	1.97	0	0	0	1	0.053697045	-275.234546	110	1	1.12	0.95;
	326	1	4.74	0.7	0	0	1	0.0501919633	-35.6069881	110	1	1.12	0.95;
	327	1	0	0	0	0	1	0.00288497134	-56.6596633	110	1	1.12	0.95;
	328	1	9.99	5.11	0	0	1	0.0200095487	-265.949501	110	1	1.12	0.95;
	329	1	7.68	4.5	0	0	1	0.0171202618	-173.649744	110	1	1.12	0.95;
	330	1	18.57	4	0	0	1	0.0164577062	19.206189	110	1	1.12	0.95;
	331	1	17.67	7.31	0	0	1	0.0169714735	-97.0022517	110	1	1.12	0.95;
	332	1	5.92	1	0	0	1	0.0113678568	-146.99487	110	1	1.12	0.95;
	333	1	6.91	1	0	0	1	0.0475641509	-211.662375	110	1	1.12	0.95;
	334	1	36.5	2	0	0	1	0.272444398	-92.5826752	110	1	1.12	0.95;
	335	1	3.95	0.5	0	0	1	0.000556154249	-225.003358	110	1	1.12	0.95;
	336	1	3.75	0.7	0	0	1	0.165225652	-237.588667	110	1	1.12	0.95;
	337	1	2.07	0.4	0	0	1	0.195042636	-63.378797	110	1	1.12	0.95;
	338	1	9.67	3.56	0	0	1	0.00123277822	-251.59853	110	1	1.12	0.95;
	339	1	0	0	0	0	1	0.00412144282	-283.42282	110	1	1.12	0.95;
	340	1	6.41	0.6	0	0	1	1.61396186	-284.936128	110	1	1.12	0.95;
	341	1	4.99	1.2	0	0	1	2.91734133	-222.688007	110	1	1.12	0.95;
	342	1	6.79	2.5	0	0	1	0.028249472	-235.770921	110	1	1.12	0.95;
	343	1	1.97	1.3	0	0	1	0.495879227	-64.1490391	110	1	1.12	0.95;
	344	1	27.67	20.42	0	0	1	1.04375877	-187.392694	110	1	1.12	0.95;
	345	1	20.43	20.62	0	0	1	0.0566455958	-216.499653	110	1	1.12	0.95;
	346	1	36.5	12.01	0	0	1	0.0283545275	-71.6813476	110	1	1.12	0.95;
	347	1	4.56	3	0	0	1	0.675689183	-10.7770747	110	1	1.12	0.95;
	348	1	9.96	0.9	0	0	1	0.151454565	-2.71009248	110	1	1.12	0.95;
	349	1	0	0	0	0	1	0.018383494	-234.238896	110	1	1.12	0.95;
	350	1	7	2	0	0	1	0.00986447218	-13.5158178	110	1	1.12	0.95;
	351	1	0	0	0	0	1	0.258176433	-303.848565	110	1	1.12	0.95;
	352	1	13.32	1.4	0	0	1	0.384942351	38.6757227	110	1	1.12	0.95;
	353	1	2.47	0	0	0	1	0.00546577299	-249.372305	110	1	1.12	0.95;
	354	1	1.97	0	0	0	1	0.0388460834	-28.4494452	110	1	1.12	0.95;
	355	1	5.92	1.56	0	0	1	0.0111817645	-25.3771151	110	1	1.12	0.95;
	356	1	5.92	1.56	0	0	1	0.0557220414	-50.0841677	110	1	1.12	0.95;
	357	1	0	0	0	0	1	0.132992762	-263.69697	110	1	1.12	0.95;
	358	1	0	0	0	0	1	0.036282238	5.67422194	110	1	1.12	0.95;
	359	1	0.18	0.05	0	0	1	0.132555481	-166.577281	110	1	1.12	0.95;
	360	1	0	0	0	0	1	3.47189166e-05	-196.900916	110	1	1.12	0.95;
	361	1	15.19	7.91	0	0	1	1.32771093	-35.9648797	110	1	1.12	0.95;
	362	1	0	0	0	0	1	0.387311557	-45.0206716	110	1	1.12	0.95;
	363	1	3.65	0.8	0	0	1	0.0123064441	-98.1251712	110	1	1.12	0.95;
	364	1	3.65	0.8	0	0	1	0.0108866249	-43.5037555	110	1	1.12	0.95;
	365	1	1.97	0.4	0	0	1	3.60111382	37.2779793	110	1	1.12	0.95;
	366	1	6.41	1	0	0	1	0.372941011	-138.974137	110	1	1.12	0.95;
	367	1	6.69	2.2	0	0	1	0.116690435	-189.92088	110	1	1.12	0.95;
	368	1	5.53	1.8	0	0	1	0.0062255355	-60.7039731	110	1	1.12	0.95;
	369	1	0.15	0.67	0	0	1	0.000425200066	-202.795988	110	1	1.12	0.95;
	370	1	18.52	12.25	0	0	1	0.0181875737	-96.6020233	110	1	1.12	0.95;
	371	1	14.09	6.13	0	0	1	0.0168823126	-104.815461	110	1	1.12	0.95;
	372	1	1.97	0.4	0	0	1	0.0367255924	-34.0618892	110	1	1.12	0.95;
	373	1	0	0	0	0	1	0.0362527451	-176.111936	110	1	1.12	0.95;
	374	1	12.04	4.84	0	0	1	0.024080998	-66.8209566	110	1	1.12	0.95;
	375	1	0	0	0	0	1	0.00430826398	-307.764955	110	1	1.12	0.95;
	376	1	2.47	0.8	0	0	1	2.83953889	-272.766944	110	1	1.12	0.95;
	377	1	5.13	2.2	0	0	1	0.00149908498	-259.510836	110	1	1.12	0.95;
	378	1	5.62	2.4	0	0	1	0.0076333811	-0.866657965	110	1	1.12	0.95;
	379	1	0	0	0	0	1	0.445400652	-185.136634	110	1	1.12	0.95;
	380	1	7.89	1.3	0	0	1	0.338146404	-286.148514	110	1	1.12	0.95;
	381	1	2.96	0	0	0	1	2.57817267	-21.40427	110	1	1.12	0.95;
	382	1	3.28	2	0	0	1	0.0832438734	-78.0788869	110	1	1.12	0.95;
	383	1	3.13	2	0	0	1	0.0130852422	28.588474	110	1	1.12	0.95;
	384	1	2.86	0.2	0	0	1	0.0799526766	-12.4944835	110	1	1.12	0.95;
	385	1	8.53	3.3	0	0	1	0.00968796549	43.5443039	110	1	1.12	0.95;
	386	1	9.79	4.71	0	0	1	0.0126487453	31.7304177	110	1	1.12	0.95;
	387	1	8.2	1.8	0	0	1	0.34814557	-206.417365	110	1	1.12	0.95;
	388	1	5.62	2.07	0	0	1	0.0143920288	-192.925513	110	1	1.12	0.95;
	389	1	0	0	0	0	1	0.0135145058	-100.94571	110	1	1.12	0.95;
	390	1	3.74	0.85	0	0	1	0.008403058	38.5804812	110	1	1.12	0.95;
	391	1	5.33	0.7	0	0	1	0.0361516511	-153.54818	110	1	1.12	0.95;
	392	1	11.44	0.7	0	0	1	0.0074913961	-91.6007063	110	1	1.12	0.95;
	393	1	2.07	0.7	0	0	1	0.10390742	-99.1040266	110	1	1.12	0.95;
	394	1	2.07	0.7	0	0	1	0.0184152074	-298.391013	110	1	1.12	0.95;
	395	1	9.67	3.88	0	0	1	0.010113433	-76.3743259	110	1	1.12	0.95;
	396	1	0	0	0	0	1	0.0101359667	-228.927454	110	1	1.12	0.95;
	397	1	9.57	3.52	0	0	1	0.427212456	-182.038306	110	1	1.12	0.95;
	398	2	4.93	-0.66	0	0	1	0.0254015506	-43.6312125	110	1	1.12	0.95;
	399	1	5.42	0.5	0	0	1	0.0234808867	-267.793659	110	1	1.12	0.95;
	400	1	0	0	0	0	1	0.000366507358	37.0004203	110	1	1.12	0.95;
	401	1	4.54	1.9	0	0	1	0.0538781067	-257.464398	110	1	1.12	0.95;
	402	1	14.99	6.03	0	0	1	0.0091706653	-294.767813	110	1	1.12	0.95;
	403	1	0	0	0	0	1	0.0133910612	-41.2320036	110	1	1.12	0.95;
	404	1	10.95	4.03	0	0	1	0.100270685	26.2900397	110	1	1.12	0.95;
	405	1	0	0	0	0	1	0.104740492	-166.840604	110	1	1.12	0.95;
	406	1	14.21	5.24	0	0	1	0.0585832112	-240.126668	110	1	1.12	0.95;
	407	1	17.76	6.54	0	0	1	0.155976431	-97.514292	110	1	1.12	0.95;
	408	1	5.66	1.52	0	0	1	0.0193799619	-22.2185361	110	1	1.12	0.95;
	409	1	22.7	9.13	0	0	1	0.0443520635	-5.10490164	110	1	1.12	0.95;
	410	1	0	0	0	0	1	0.0704438878	-225.50359	110	1	1.12	0.95;
	411	1	14.44	10.73	0	0	1	0.0114147559	-293.402955	110	1	1.12	0.95;
	412	2	14.2	0.68	0	0	1	0.051414754	-304.284389	110	1	1.12	0.95;
	413	1	0	0	0	0	1	0.16222286	-181.92572	110	1	1.12	0.95;
	414	2	1.1	-4.85	0	0	1	0.0635500317	-46.3750467	110	1	1.12	0.95;
	415	1	12.46	9.56	0	0	1	0.0537367871	-293.359711	110	1	1.12	0.95;
	416	1	11.34	0.7	0	0	1	0.0177397815	-63.4784357	110	1	1.12	0.95;
	417	1	0	0	0	0	1	0.000164385136	-257.86596	110	1	1.12	0.95;
	418	1	1.97	0.2	0	0	1	1.29384799	-38.6155102	110	1	1.12	0.95;
	419	1	2.82	0	0	0	1	0.0465047937	45.1106729	110	1	1.12	0.95;
	420	1	4.03	1	0	0	1	0.0187714863	-48.2674303	110	1	1.12	0.95;
	421	1	2.28	0.4	0	0	1	0.00392707826	-19.4443373	110	1	1.12	0.95;
	422	1	10.41	2	0	0	1	0.0432822332	-203.032586	110	1	1.12	0.95;
	423	1	0	0	0	0	1	0.00220077572	-253.94183	110	1	1.12	0.95;
	424	1	7.79	2.5	0	0	1	0.34795064	-164.471566	110	1	1.12	0.95;
	425	1	5.97	1.7	0	0	1	0.0011298142	-278.456651	110	1	1.12	0.95;
	426	1	9.67	3.56	0	0	1	0.000928409972	-24.1435517	110	1	1.12	0.95;
	427	1	0	0	0	0	1	0.0030853024	-57.5139876	110	1	1.12	0.95;
	428	1	17.07	6.29	0	0	1	0.0603393902	-115.905519	110	1	1.12	0.95;
	429	1	0	0	0	0	1	0.0528474255	-39.3025813	110	1	1.12	0.95;
	430	1	5.42	1	0	0	1	0.224729372	-214.882741	110	1	1.12	0.95;
	431	1	4.93	1	0	0	1	0.0585131529	-102.830595	110	1	1.12	0.95;
	432	1	23.18	9.32	0	0	1	0.293422703	-219.284067	110	1	1.12	0.95;
	433	1	0	0	0	0	1	0.0125578478	-268.994368	110	1	1.12	0.95;
	434	1	7.45	2.74	0	0	1	0.0176887523	-250.344853	110	1	1.12	0.95;
	435	1	7.45	2.74	0	0	1	0.165169805	-6.69329452	110	1	1.12	0.95;
	436	1	5.92	0.7	0	0	1	0.296453267	-128.291064	110	1	1.12	0.95;
	437	1	2.96	0.2	0	0	1	0.105606222	-223.52509	110	1	1.12	0.95;
	438	1	8.09	2	0	0	1	0.134420323	-91.3662668	110	1	1.12	0.95;
	439	1	7.4	1.9	0	0	1	0.143749741	-112.500851	110	1	1.12	0.95;
	440	1	10.46	3.85	0	0	1	0.0972154423	-0.0498818704	110	1	1.12	0.95;
	441	1	9.07	2.4	0	0	1	0.525786893	29.8246947	110	1	1.12	0.95;
	442	1	5.42	1	0	0	1	0.752149056	-130.731077	110	1	1.12	0.95;
	443	1	25.35	9.34	0	0	1	0.0165945616	-293.453092	110	1	1.12	0.95;
	444	1	0	0	0	0	1	0.00645172097	-295.036351	110	1	1.12	0.95;
	445	1	10.97	0	0	0	1	0.0024100663	-301.965836	110	1	1.12	0.95;
	446	1	9.61	0	0	0	1	0.0513305948	-224.146881	110	1	1.12	0.95;
	447	1	2.96	0.7	0	0	1	0.0624973865	-207.496272	110	1	1.12	0.95;
	448	1	7.89	1.2	0	0	1	0.132126681	17.8430661	110	1	1.12	0.95;
	449	1	0	0	0	0	1	3.43430559e-08	-248.833122	110	1	1.12	0.95;
	450	1	8.38	1.2	0	0	1	0.0229441011	-3.48738685	110	1	1.12	0.95;
	451	1	12.43	4.57	0	0	1	0.0054726801	13.1993051	110	1	1.12	0.95;
	452	1	0	0	0	0	1	0.0132380446	-95.8334059	110	1	1.12	0.95;
	453	1	8.5	4	0	0	1	0.0163062966	37.4214976	110	1	1.12	0.95;
	454	1	0	0	0	0	1	5.68119156e-05	-172.452209	110	1	1.12	0.95;
	455	1	9.86	2.6	0	0	1	0.0183779846	-126.699503	110	1	1.12	0.95;
	456	1	9.86	2.6	0	0	1	0.0483078513	-305.924623	110	1	1.12	0.95;
	457	1	4.93	0.8	0	0	1	0.529587992	-49.8638559	110	1	1.12	0.95;
	458	1	0	0	0	0	1	0.0006035413	21.670155	110	1	1.12	0.95;
	459	1	0	0	0	0	1	0.0555092795	-304.460357	110	1	1.12	0.95;
	460	1	0	0	0	0	1	0.362066612	-152.064888	110	1	1.12	0.95;
	461	1	0	0	0	45	1	9.6816689e-06	-269.483885	16	1	1.12	0.95;
	462	1	0	0	0	0	1	8.6080371e-06	-295.709305	32	1	1.12	0.95;
	463	1	18.17	7.41	0	0	1	0.10434905	-27.9881225	110	1	1.12	0.95;
	464	1	14.04	5.41	0	0	1	0.182368196	-137.572509	110	1	1.12	0.95;
	465	1	5.72	0.9	0	0	1	0.00930826774	-249.446234	110	1	1.12	0.95;
	466	2	7.68	0.38	0	0	1	0.29285255	-38.668421	110	1	1.12	0.95;
	467	1	14.8	1.4	0	0	1	0.301814106	-153.118598	110	1	1.12	0.95;
	468	1	0	0	0	0	1	0.225873485	-5.54606582	110	1	1.12	0.95;
	469	1	11.94	4.4	0	0	1	0.0023179644	-88.1200133	110	1	1.12	0.95;
	470	1	0	0	0	0	1	0.0190511466	-25.2754187	110	1	1.12	0.95;
	471	1	9.37	2.38	0	0	1	0.00214225422	-226.758536	110	1	1.12	0.95;
	472	1	0	0	0	0	1	0.0116385564	-6.17627541	110	1	1.12	0.95;
	473	1	5.92	1	0	0	1	0.708042204	-183.996624	110	1	1.12	0.95;
	474	1	0.99	0.3	0	0	1	0.240053786	-149.982976	110	1	1.12	0.95;
	475	1	0	0	0	0	1	0.140714581	-160.135186	110	1	1.12	0.95;
	476	1	0	0	0	0	1	0.0350122929	-310.096842	110	1	1.12	0.95;
	477	1	0	0	0	15	1	2.90306133	-9.49382416	16	1	1.12	0.95;
	478	1	0	0	0	15	1	0.00153710409	-125.780187	16	1	1.12	0.95;
	479	1	2.46	0.3	0	0	1	0.0121940156	-271.730212	110	1	1.12	0.95;
	480	1	4.94	2	0	0	1	0.00450301769	26.9235017	110	1	1.12	0.95;
	481	1	5.92	2.1	0	0	1	0.154472049	3.61813284	110	1	1.12	0.95;
	482	1	5.92	2.1	0	0	1	0.0220565661	-66.8859748	110	1	1.12	0.95;
	483	1	5.72	1.6	0	0	1	0.0127304559	-62.110369	110	1	1.12	0.95;
	484	1	3.85	1.4	0	0	1	0.00826453074	-226.350982	110	1	1.12	0.95;
	485	1	0	0	0	0	1	0.0734457294	-54.4785849	110	1	1.12	0.95;
	486	1	0	0	0	0	1	4.3806202	-298.080942	110	1	1.12	0.95;
	487	1	0	0	0	0	1	4.49724238	-225.739987	110	1	1.12	0.95;
	488	1	0	0	0	0	1	1.75220469	-282.053821	16	1	1.12	0.95;
	489	1	2.56	0.6	0	0	1	0.00343616689	27.2950683	110	1	1.12	0.95;
	490	1	2.86	1.5	0	0	1	0.00161555385	-46.7057256	110	1	1.12	0.95;
	491	1	7.57	2.2	0	0	1	0.164314817	-149.738374	110	1	1.12	0.95;