function mpc = case2868rte_resqlim
%CASE2868RTE_RESQLIM

%% MATPOWER Case Format : Version 2
mpc.version = '2';

%%-----  Power Flow Data  -----%%
%% system MVA base
mpc.baseMVA = 100;

%% bus data
%    bus_i    type    Pd    Qd    Gs    Bs    area    Vm    Va    baseKV    zone    Vmax    Vmin
mpc.bus = [
    1    1    -18.5    0    0    0    1    1.03957074    -12.7856509    63    1    1.06349    0.936508;
    2    1    11.8    0.6    0    0    1    1.06516669    -13.3775389    225    1    1.08889    0.888889;
    3    1    0    0    0    0    1    1.08888546    -4.51671702    380    1    1.10263    1;
    4    1    0    0    0    0    1    1.00600996    -20.9505448    63    1    1.07937    0.920635;
    5    1    0.2    -0.2    0    0    1    0.942209712    -9.07367325    45    1    1    0.888889;
    6    1    5.6    -19    0    0    1    0.94296561    -9.11016114    45    1    1    0.888889;
    7    1    223.6    7.6    0    0    1    1.06730298    -11.3034406    225    1    1.08444    1;
    8    1    68.6    7.6    0    0    1    1.00974411    -19.5488389    63    1    1.06349    0.968254;
    10    1    0    0    0    0    1    1.05674633    -7.6859698    150    1    1.10667    0.9;
    11    1    49.1    0.9    0    0    1    1.04778703    -10.4959639    225    1    1.08889    0.933333;
    2571    1    34    14.4    0    0    1    1.04686282    -11.4360738    225    1    1.08889    0.933333;
    12    1    0    0    0    0    1    1.0570783    -10.6257474    380    1    1.10526    1;
    2572    1    0    0    0    0    1    1.06291996    -10.1490097    380    1    1.10526    1;
    13    1    0    0    0    0    1    1.06118059    -20.8121594    225    1    1.09067    1;
    14    1    0.2    -1.1    0    0    1    0.998402273    -19.5349019    63    1    1.06349    0.936508;
    15    1    10.3    -0.2    0    0    1    1.00960184    -16.8840236    63    1    1.06349    0.936508;
    16    1    189.8    54.4    0    0    1    1.03332753    -15.2015161    225    1    1.08889    0.933333;
    17    1    54.5    13.1    0    0    1    1.07437329    -22.1328317    225    1    1.08889    1;
    18    1    67.6    23.2    0    0    1    1.06826934    -19.369661    225    1    1.08962    1;
    19    1    0    0    0    0    1    1.04150565    -15.107511    63    1    1.08661    0.920635;
    20    1    150.5    40    0    0    1    1.07414904    -22.1336063    225    1    1.08889    1;
    21    1    78.1    6.2    0    0    1    1.07837745    -10.4264501    225    1    1.08889    0.888889;
    22    1    15    -9.4    0    0    1    0.990279412    -25.014912    63    1    1.07249    0.936508;
    23    1    50.9    6    0    0    1    1.00173474    -18.3619703    63    1    1.06349    0.936508;
    24    1    0    0    0    0    1    1.08736673    -7.06750396    225    1    1.08889    1;
    2573    1    0    0    0    0    1    1.08736631    -7.06750113    225    1    1.08889    1;
    25    1    65.1    1.6    0    0    1    1.07853363    -10.4233912    225    1    1.08889    0.888889;
    26    1    1.6    -4.2    0    0    1    1.07598744    -4.14811723    225    1    1.09649    0.986667;
    27    1    42.8    2.3    0    0    1    1.01405223    -18.4056103    63    1    1.06349    0.936508;
    28    1    39.4    15.5    0    0    1    1.05113895    -20.4941876    225    1    1.08889    1;
    2574    1    42.2    12.4    0    0    1    1.05112133    -20.4945453    225    1    1.08889    1;
    29    1    11.4    0.5    0    0    1    1.00515521    -16.7539769    63    1    1.06349    0.936508;
    30    1    72.7    36.5    0    0    1    1.06337239    -18.9692115    225    1    1.08889    1;
    31    1    2.7    -1.4    0    0    1    1.04330906    -14.6242825    63    1    1.07211    0.936508;
    32    1    13.8    -0.4    0    0    1    1.02946566    -19.8883959    63    1    1.06349    0.936508;
    33    1    2    -0.5    0    0    1    0.937076005    -9.75466137    45    1    1    0.888889;
    34    1    0.4    0    0    0    1    0.94194428    -9.10370635    45    1    1    0.888889;
    35    1    30.4    3    0    0    1    1.02086428    -18.2068976    63    1    1.06349    0.968254;
    36    1    1.9    -3.1    0    0    1    0.974471963    -12.2688461    45    1    1    0.888889;
    37    1    18.9    0.9    0    0    1    0.996883091    -16.0858104    63    1    1.06349    0.936508;
    38    3    0    0    0    0    1    1.036    -12.7572317    63    1    1.07937    0.952381;
    39    1    99.3    18.8    0    0    1    1.04880949    -12.8596939    225    1    1.08934    0.986667;
    40    1    38.7    0.9    0    0    1    1.06143677    -12.0055618    225    1    1.08889    0.888889;
    41    1    89.8    13    0    0    1    1.05307427    -28.0690398    225    1    1.08444    1;
    42    1    63.9    9.7    0    0    1    1.02349613    -14.0643108    63    1    1.0637    0.936508;
    43    1    0    0    0    0    1    1.04400425    -11.7772435    225    1    1.08889    0.933333;
    44    1    33.1    -6.5    0    0    1    1.02695311    -18.1849839    63    1    1.06349    0.968254;
    45    1    168.4    34.9    0    0    1    1.05508118    -18.6863905    225    1    1.08889    1;
    46    1    0    0    0    0    1    1.08899996    -4.50903487    380    1    1.10526    1;
    2575    1    0    0    0    0    1    1.08899763    -4.5052882    380    1    1.10526    1;
    47    1    29.5    4.5    0    0    1    1.02924994    -11.0032309    63    1    1.06606    0.936508;
    48    1    1.6    0    0    0    1    1.0380023    -15.0627934    63    1    1.06735    0.936508;
    49    1    14.9    10.4    0    0    1    1.04449377    -10.7690362    63    1    1.06349    0.968254;
    2576    1    9.9    7.2    0    0    1    1.04213976    -11.5674386    63    1    1.06349    0.968254;
    50    1    0    0    0    0    1    1.07524181    -8.92969468    225    1    1.08444    1;
    51    1    114.9    20.2    0    0    1    1.07080154    -14.9322226    225    1    1.08444    1;
    52    1    0    0    0    0    1    1.07543395    -21.9585367    225    1    1.08889    1;
    2942    1    106    29.6    0    0    1    1.03656994    -20.8860482    225    1    1.08889    1;
    53    1    5.7    -6.6    0    0    1    1.03967305    -11.2114832    63    1    1.06349    0.968254;
    54    1    0    0    0    0    1    1.06904972    -11.0690101    150    1    1.08    0.966667;
    55    1    65.6    18    0    80    1    1.02277092    -7.31812106    225    1    1.09459    1;
    56    1    0    0    0    0    1    1.03724147    -4.57515341    380    1    1.10526    1;
    57    1    146.4    39.1    0    0    1    1.02124002    -17.7251591    225    1    1.08889    0.986667;
    59    1    78.7    21.1    0    0    1    1.07954393    -10.2093798    225    1    1.08889    0.968889;
    60    1    125.2    37.6    0    0    1    1.08484514    -8.00388709    380    1    1.10526    1;
    61    1    6    1    0    0    1    1.03128173    -15.4711978    63    1    1.06349    0.936508;
    63    1    36.1    4.7    0    7.7    1    1.00933558    -20.0679804    63    1    1.06349    0.968254;
    2577    1    0    0    0    0    1    1.00934424    -21.3334173    63    1    1.06349    0.968254;
    64    1    53.3    13.4    0    0    1    1.05276128    -12.6446356    225    1    1.08889    0.933333;
    65    1    0    0    0    0    1    1.00931717    -21.3374383    63    1    1.06349    0.968254;
    66    1    43.4    -0.7    0    0    1    0.92175763    -13.4339467    45    1    1    0.888889;
    2578    2    0    0    0    0    1    0.958    -13.3407261    45    1    1    0.888889;
    67    1    41.3    12.8    0    0    1    1.06670888    -10.8411748    225    1    1.08889    0.888889;
    2579    1    38.5    8.5    0    0    1    1.06690256    -10.835916    225    1    1.08889    0.888889;
    68    1    19.6    3.7    0    0    1    1.06949128    -18.381187    20    1    1.2    0.8;
    69    1    320.7    74.9    0    0    1    1.06953469    -18.3731259    225    1    1.08685    1;
    70    1    140.9    -22.3    0    0    1    1.06893349    -20.6667868    225    1    1.08889    1;
    71    2    0    0    0    0    1    1.091    -12.4948451    150    1    1.10885    0.9;
    72    1    0    0    0    0    1    1.0487681    -20.6337343    225    1    1.08889    1;
    2580    1    0    0    0    0    1    1.04876788    -20.6337331    225    1    1.08889    1;
    74    1    0    0    0    0    1    1.04876663    -20.6337262    225    1    1.08889    1;
    75    1    15.6    3    0    0    1    1.02954269    -12.5232602    63    1    1.06349    0.936508;
    76    2    0    0    0    0    1    0.936    -9.18763306    45    1    1    0.888889;
    77    1    6.4    0.3    0    0    1    1.03543542    -16.1086493    63    1    1.08481    0.920635;
    78    1    4.8    2.4    0    0    1    1.05502862    -19.2480453    225    1    1.08889    1;
    79    1    17.4    1.7    0    15    1    1.00754108    -27.4814562    63    1    1.07937    0.920635;
    80    1    10    -0.6    0    0    1    0.995772648    -19.1831462    63    1    1.08744    0.920635;
    81    1    0    0    0    0    1    1.0440276    -17.359702    225    1    1.08889    1;
    82    1    63.1    25.3    0    0    1    1.05795939    -12.3730191    225    1    1.08889    0.888889;
    83    1    44.1    1.9    0    0    1    0.997900327    -25.7645007    63    1    1.06349    0.967399;
    84    1    162.3    51.1    0    0    1    1.07048844    -7.92331607    225    1    1.08889    0.968889;
    85    1    0    0    0    0    1    1.08605073    -4.78732009    380    1    1.10526    1;
    86    1    58.3    14.1    0    0    1    1.00724259    -23.3698198    63    1    1.06349    0.968254;
    87    1    32.5    4.6    0    0    1    0.993796119    -13.6335423    63    1    1.06349    0.968254;
    88    1    1.5    0.7    0    0    1    1.02834157    -16.4283637    63    1    1.06349    0.968254;
    89    1    55.7    8.3    0    0    1    1.02175873    -14.0720657    63    1    1.06349    0.968254;
    2581    1    30.1    12.2    0    0    1    1.02212915    -13.8487246    63    1    1.06349    0.968254;
    90    1    0    0    0    0    1    1.06765662    -13.7777708    225    1    1.08444    1;
    2582    1    0    0    0    0    1    1.06760338    -13.807522    225    1    1.08444    1;
    91    1    190.1    8    0    0    1    1.0609556    -20.2843633    225    1    1.08889    1;
    92    1    36.8    -8.5    0    0    1    1.06964778    -10.0034274    225    1    1.09041    0.933333;
    93    2    0    0    0    0    1    1.09047512    -12.5519577    150    1    1.10907    0.9;
    94    1    35.7    55.7    0    0    1    1.07939534    -12.9106011    225    1    1.08444    1;
    2583    1    34    3.2    0    0    1    1.08021703    -12.9173291    225    1    1.08444    1;
    95    1    0    0    0    0    1    1.07839122    -13.2249988    225    1    1.08889    0.977778;
    96    1    15.9    4.1    0    0    1    1.0615075    -11.1187178    225    1    1.08889    0.888889;
    97    1    40.4    6.5    0    0    1    1.00685807    -21.6222117    63    1    1.06349    0.968254;
    98    1    -3.5    -1.6    0    0    1    1.05224889    -10.2497723    225    1    1.08889    0.933333;
    99    1    18.2    5.5    0    0    1    1.06121608    -20.8488846    225    1    1.08889    1;
    2584    1    33.2    14.1    0    0    1    1.06715039    -19.6241436    225    1    1.08889    1;
    100    1    -17.2    -4.3    0    0    1    1.04357054    -17.5525378    225    1    1.08889    1;
    101    1    24.4    1.9    0    0    1    1.06339988    -13.9006632    225    1    1.08889    0.986667;
    102    1    0    0    0    80    1    1.07290192    -10.5578661    225    1    1.08889    0.888889;
    2585    1    0    0    0    0    1    1.06406579    -11.4221677    225    1    1.08889    0.888889;
    103    1    0    0    0    0    1    1.07695363    -7.11066132    380    1    1.10526    1;
    104    1    74.9    14.3    0    0    1    1.0501149    -20.7221334    225    1    1.08889    1;
    2586    1    29    6.8    0    0    1    1.06454398    -19.7362121    225    1    1.08889    1;
    105    1    11.4    9.2    0    0    1    1.00103775    -16.9248584    63    1    1.07937    0.920635;
    106    1    0    0    0    0    1    1.06901319    -10.0460515    225    1    1.08889    0.977778;
    2587    1    0    0    0    0    1    1.06901999    -10.0459566    225    1    1.08889    0.977778;
    107    1    5.7    10.3    0    0    1    1.03757067    -14.1962729    63    1    1.06349    0.968254;
    108    1    54.1    1.9    0    0    1    1.06695524    -10.7581791    225    1    1.08444    1;
    109    1    0    0    0    0    1    1.07658268    -14.0193555    225    1    1.08444    1;
    110    1    0    0    0    0    1    1.09331748    -8.28931693    380    1    1.10263    1;
    111    1    103.3    18    0    0    1    1.07626914    -14.0756991    225    1    1.08444    1;
    112    1    -1.5    2.2    0    0    1    1.06928796    -19.2036147    225    1    1.09035    1;
    2588    1    16.5    -0.1    0    0    1    1.06925164    -19.2134954    225    1    1.09035    1;
    113    1    47    9.8    0    0    1    1.0819927    -4.56327751    225    1    1.08889    0.888889;
    114    1    43.8    0.6    0    0    1    1.02384974    -16.6455425    63    1    1.06349    0.936508;
    115    1    16.4    1.2    0    0    1    1.0690746    -11.5058425    225    1    1.08889    0.888889;
    116    1    56.9    18.9    0    0    1    1.07288681    -6.70235687    225    1    1.08889    0.888889;
    117    1    3.2    0.4    0    0    1    1.01221849    -13.8566616    63    1    1.06349    0.968254;
    118    1    44    10    0    0    1    0.984057863    -29.8904038    63    1    1.07937    0.920635;
    119    1    28.5    -5.1    0    0    1    1.02675218    -21.3609643    63    1    1.06349    0.968254;
    120    2    0    0    0    0    1    1.049    -15.058726    63    1    1.06863    0.936508;
    121    1    8.5    3.1    0    0    1    1.02653722    -25.5795491    63    1    1.06349    0.968254;
    2589    1    15    6.8    0    0    1    1.02659968    -25.6110124    63    1    1.06349    0.968254;
    122    1    142.7    -26.6    0    0    1    1.05285733    -12.506156    225    1    1.08889    1;
    123    1    32.4    7.9    0    0    1    1.01316225    -23.5029903    63    1    1.07937    0.920635;
    124    1    4.7    -2    0    0    1    1.03095395    -17.0573027    63    1    1.08203    0.920635;
    125    1    0    0    0    0    1    1.0336739    -21.4763796    63    1    1.07937    0.920635;
    126    1    0    0    0    0    1    1.0233504    -12.9463589    225    1    1.08889    1;
    127    1    0    0    0    0    1    1.061739    -12.9611097    380    1    1.10526    1;
    128    1    26.4    3.8    0    0    1    1.03631833    -13.1986143    63    1    1.06349    0.936508;
    129    1    16.3    7.5    0    0    1    1.02632529    -15.7888272    63    1    1.06349    0.936508;
    130    1    10.9    16.3    0    0    1    1.04663197    -17.5668721    63    1    1.07937    0.920635;
    2955    1    0    0    0    0    1    1.0227956    -19.8618164    63    1    1.07937    0.920635;
    131    1    0    0    0    0    1    1.0527202    -15.6919249    225    1    1.08889    1;
    132    1    139.1    40    0    0    1    1.04578364    -17.0663527    225    1    1.08889    1;
    133    2    9.2    3.6    0    0    1    1.008    -29.2069551    63    1    1.06538    0.968254;
    134    1    0    0    0    0    1    1.00881558    -21.5295796    150    1    1.08    0.966667;
    135    1    -14.9    -4.8    0    0    1    1.02936073    -19.2981863    63    1    1.07937    0.920635;
    136    1    31.7    10.2    0    0    1    1.04827941    -12.3656357    225    1    1.08889    0.986667;
    137    1    9.7    -2.1    0    0    1    1.0198151    -13.6526439    63    1    1.06349    0.968254;
    138    1    12.8    5.8    0    0    1    1.06116318    -8.64980177    225    1    1.08444    1;
    140    1    0    0    0    0    1    1.09861059    -3.91680983    380    1    1.10526    1;
    2590    1    0    0    0    0    1    1.09940833    -3.83524305    380    1    1.10526    1;
    141    1    20.8    1.1    0    0    1    1.05545215    -11.2719939    225    1    1.08889    1;
    142    1    10.3    9.6    0    0    1    1.06626653    -16.3570817    225    1    1.08889    1;
    143    1    28.7    2.3    0    0    1    1.01995095    -21.3560134    63    1    1.06349    0.968254;
    144    1    82.9    11.1    0    0    1    1.075666    -15.3110955    150    1    1.1    0.9;
    145    1    72.9    0.2    0    0    1    1.04693974    -13.700896    225    1    1.08925    1;
    146    2    -3.7    -0.5    0    0    1    1.051    -20.5356037    225    1    1.08889    1;
    147    1    0    0    0    0    1    1.04733528    -10.4089217    225    1    1.08889    0.933333;
    148    1    0    0    0    0    1    1.06293868    -10.0930426    380    1    1.10526    1;
    2591    1    0    0    0    0    1    1.05707552    -10.5433047    380    1    1.10526    1;
    149    1    0    0    0    0    1    1.07473471    -22.1074766    225    1    1.08889    1;
    2592    1    66.1    19.5    0    0    1    1.0347394    -21.1306766    225    1    1.08889    1;
    150    1    0    0    0    0    1    1.02224417    -11.0332254    225    1    1.08889    0.986667;
    151    1    24    9.7    0    0    1    1.07455824    -22.1203835    225    1    1.08889    1;
    153    1    137.1    23.1    0    0    1    1.02980033    -10.4231277    225    1    1.08889    0.933333;
    154    1    0    0    0    0    1    1.06626964    -7.13788385    380    1    1.10526    1;
    155    1    55.3    18.4    0    0    1    1.05850973    -10.6112512    225    1    1.08889    1;
    156    1    30.9    4.2    0    0    1    1.04464819    -16.3219945    63    1    1.06503    0.936508;
    157    1    2.4    0.4    0    0    1    1.03564222    -14.6858502    63    1    1.06349    0.968254;
    158    1    27.5    2.2    0    0    1    1.01640934    -21.2022009    63    1    1.07937    0.920635;
    159    1    24.3    1.9    0    0    1    1.0065889    -23.9976681    63    1    1.06349    0.968254;
    160    1    5.6    3    0    0    1    1.01781991    -17.888386    63    1    1.06349    0.936508;
    161    1    0    0    0    0    1    0.997372448    -21.1158526    63    1    1.15    0.8;
    162    1    0.5    -40.5    0    0    1    1.0724193    -19.7796414    225    1    1.09053    1;
    163    1    0    0    0    0    1    1.01942021    -31.2100473    63    1    1.06349    0.968254;
    164    1    109.3    -1.7    0    0    1    1.0439638    -11.5860344    225    1    1.09791    1;
    165    1    187.3    17.6    0    0    1    1.05303584    -8.53297324    225    1    1.08889    0.986667;
    166    1    51.6    6.2    0    0    1    1.03235274    -16.7482068    63    1    1.06349    0.968254;
    167    1    119.3    36.7    0    0    1    1.06118842    -20.807027    225    1    1.09067    1;
    168    1    14.1    -5.7    0    0    1    1.0076754    -16.301367    63    1    1.06349    0.936508;
    169    1    24.1    -4.6    0    0    1    1.0124195    -16.0049382    63    1    1.06349    0.968254;
    170    1    1.8    0.3    0    0    1    1.03162859    -15.9797699    63    1    1.06822    0.936508;
    171    1    181.5    51.4    0    0    1    1.05497058    -12.8212795    225    1    1.08889    0.924444;
    172    2    -0    1.2    0    0    1    0.995015    -12.2363058    63    1    1.06349    0.968254;
    173    1    82.5    15.9    0    0    1    1.08898655    -2.73327438    225    1    1.09616    0.986667;
    174    1    0    0    0    0    1    1.09568901    -1.70247243    380    1    1.10526    1;
    2998    1    0    0    0    0    1    1.09658913    -1.16129964    380    1    1.10526    1;
    175    1    120.7    -49.6    0    0    1    1.0660945    -23.1480029    225    1    1.08444    1;
    177    1    0    0    0    0    1    0.970410004    -27.7752476    63    1    1.06349    0.960855;
    178    1    0    0    0    0    1    1.05671877    -26.7198436    225    1    1.08444    1;
    179    1    0    0    0    0    1    1.052746    -23.9394857    380    1    1.10263    1;
    180    1    5    0.6    0    0    1    1.0297866    -10.4512216    225    1    1.08889    0.933333;
    181    1    -3    -14.3    0    0    1    0.979322683    -9.47678764    45    1    1.01652    0.888889;
    182    1    0    0    0    0    1    1.03156899    -15.435356    63    1    1.06349    0.936508;
    183    1    0    0    0    0    1    1.04537042    -11.8208058    225    1    1.08889    0.933333;
    184    2    0    0    0    0    1    1.06817651    -8.81250699    225    1    1.08889    0.977778;
    185    1    22.3    -2.2    0    0    1    1.02336812    -17.9629197    63    1    1.06349    0.936508;
    186    1    -2.4    -2.2    0    0    1    1.07442958    -2.97708778    225    1    1.09862    1;
    187    1    0    0    0    0    1    1.07034557    -2.95500976    380    1    1.10526    1;
    2593    1    0    0    0    0    1    1.07037922    -2.95118917    380    1    1.10526    1;
    2594    1    0    0    0    0    1    1.07039187    -2.95206658    380    1    1.10526    1;
    2595    1    0    0    0    0    1    1.0704066    -2.96429662    380    1    1.10526    1;
    188    1    0    0    0    0    1    1.08944704    -2.60427878    225    1    1.09683    0.986667;
    2596    1    0    0    0    0    1    1.08914177    -2.62414739    225    1    1.09683    0.986667;
    189    1    0    0    0    0    1    1.09591932    -1.6310889    380    1    1.10526    1;
    190    1    39.7    -5.2    0    0    1    1.08029811    -10.8632695    225    1    1.08889    0.968889;
    191    1    36.6    -1.4    0    0    1    0.995118832    -32.5658518    63    1    1.06349    0.968254;
    192    1    38.7    6.8    0    0    1    1.05307326    -28.0231606    225    1    1.08444    1;
    193    1    51.7    10.5    0    0    1    1.09016654    -9.69846799    380    1    1.10526    1;
    194    1    0    0    0    0    1    1.02850746    -15.8394437    63    1    1.06349    0.936508;
    2597    1    0    0    0    0    1    1.02840305    -15.4801169    63    1    1.06349    0.936508;
    195    1    0    0    0    0    1    1.05985128    -11.069304    225    1    1.08889    0.933333;
    196    1    0    0    0    0    1    1.07295788    -6.42782881    380    1    1.10526    1;
    197    1    6.2    17.4    0    0    1    1.03044726    -11.2048008    63    1    1.06349    0.968254;
    198    1    0    0    0    0    1    1.06510936    -7.30516403    225    1    1.08444    1;
    199    1    250.8    25.3    0    0    1    1.05980321    -10.1162357    225    1    1.08444    1;
    200    1    47.3    6.4    0    0    1    1.05925231    -11.7515465    225    1    1.08889    0.933333;
    2598    1    44.8    9.4    0    0    1    1.05922187    -11.7543252    225    1    1.08889    0.933333;
    201    1    51    0.4    0    0    1    1.07207587    -19.7758121    225    1    1.09027    1;
    202    1    0    0    0    0    1    1.06248786    -8.82510115    225    1    1.09529    1;
    2599    1    0    0    0    0    1    1.06229395    -8.9368443    225    1    1.09529    1;
    203    1    76.8    4.7    0    0    1    1.05028687    -12.3262135    225    1    1.08889    1;
    204    1    31.4    -2.8    0    0    1    1.07500568    -13.3068191    225    1    1.08889    1;
    205    1    0    0    0    0    1    0.997198422    -13.2794297    63    1    1.06349    0.968254;
    206    1    0    0    0    0    1    1.05232106    -9.01931724    225    1    1.08444    1;
    207    1    13.9    5.2    0    0    1    1.02358871    -20.1544227    63    1    1.06349    0.968254;
    208    1    6.3    5    0    0    1    1.02098324    -22.6659143    63    1    1.07937    0.920635;
    209    1    44.8    -0.6    0    0    1    0.992421152    -17.4871505    63    1    1.06349    0.936508;
    210    1    0    0    0    0    1    1.00754108    -27.4814562    63    1    1.07937    0.920635;
    211    1    33.9    5.9    0    0    1    1.04861401    -13.0257362    225    1    1.08889    1;
    212    1    0    0    0    0    1    1.07373759    -16.7460124    225    1    1.08444    1;
    213    1    0    0    0    0    1    1.07364159    -16.7549775    225    1    1.08444    1;
    2600    1    0    0    0    0    1    1.07397671    -11.5979057    225    1    1.08444    1;
    214    1    0    0    0    0    1    1.07465635    -9.21425352    380    1    1.10263    1;
    215    1    -3.6    -5.3    0    0    1    1.0388281    -14.8193034    63    1    1.06418    0.936508;
    216    1    186    34.8    0    0    1    1.07315993    -6.43953699    225    1    1.08889    0.888889;
    217    1    0    0    0    0    1    1.07442094    -2.97715229    225    1    1.09861    1;
    218    1    0    0    0    0    1    1.07029979    -3.02756499    380    1    1.10526    1;
    219    1    37.1    2.4    0    0    1    1.06496714    -15.2881817    225    1    1.08889    0.986667;
    220    1    0    0    0    0    1    0.996253006    -28.4394501    63    1    1.06349    0.968254;
    221    1    22.8    6.4    0    0    1    1.00192462    -18.316836    63    1    1.07937    0.920635;
    222    1    0    0    0    0    1    1.04250102    -17.0309642    225    1    1.08889    1;
    223    1    0    0    0    0    1    1.07479961    -29.5169266    225    1    1.08444    1;
    2601    1    0    0    0    0    1    1.07479208    -29.5167297    225    1    1.08444    1;
    2602    1    0    0    0    0    1    1.07479208    -29.5167297    225    1    1.08444    1;
    224    1    70.6    -9.6    0    0    1    1.07479102    -29.516702    225    1    1.08444    1;
    225    2    0    0    0    0    1    1.046    -9.82965848    20    1    1.2    0.8;
    226    1    0    0    0    0    1    1.04306698    -11.7466699    225    1    1.08889    0.933333;
    227    1    15.7    -0.9    0    0    1    1.05747308    -14.9826078    225    1    1.08889    0.986667;
    229    1    0    0    0    0    1    1.05606007    -9.37781221    225    1    1.0904    1;
    230    1    0    0    0    0    1    1.07526447    -7.62852964    380    1    1.10526    1;
    231    1    0    0    0    0    1    1.03988197    -9.75112301    225    1    1.08889    0.933333;
    232    1    13.4    1    0    0    1    1.01473966    -12.4596836    63    1    1.06349    0.968254;
    2603    1    8.9    -0.3    0    0    1    1.03606897    -11.7348658    63    1    1.06349    0.968254;
    233    1    0    0    0    0    1    1.06782003    -11.2749989    150    1    1.08    0.966667;
    234    1    3.8    0.2    0    0    1    1.05213064    -20.2424564    225    1    1.08889    1;
    2604    1    53.2    27.8    0    0    1    1.05137029    -20.3185732    225    1    1.08889    1;
    235    2    0    0    0    0    1    1.022    -14.0623899    63    1    1.06349    0.936508;
    236    1    26.8    0.8    0    0    1    1.0305346    -15.1516013    63    1    1.06349    0.968254;
    237    1    15    0.1    0    0    1    1.01896284    -18.5363978    63    1    1.06349    0.936508;
    238    1    48.1    15.9    0    0    1    1.07329949    -7.06866443    225    1    1.08889    0.888889;
    239    1    0    0    0    0    1    1.06541891    -10.209633    225    1    1.0919    1;
    2605    1    0    0    0    0    1    1.06542687    -10.20784    225    1    1.0919    1;
    2606    1    0    0    0    0    1    1.0654032    -10.2177315    225    1    1.0919    1;
    2607    1    0    0    0    0    1    1.06542549    -10.2087765    225    1    1.0919    1;
    2608    1    0    0    0    0    1    1.06541839    -10.211206    225    1    1.0919    1;
    240    2    0    0    0    0    1    1.073    -6.9951648    380    1    1.10694    1;
    241    1    13.8    6.5    0    0    1    1.03061761    -10.1305569    63    1    1.06721    0.936508;
    242    1    43.7    6.5    0    0    1    1.02972188    -16.1934971    63    1    1.06349    0.968254;
    243    1    165.4    29.4    0    0    1    1.04877458    -12.9984157    225    1    1.08889    1;
    244    1    39.8    7.7    0    0    1    1.02309984    -23.7865505    63    1    1.06349    0.968254;
    245    1    36.4    15.7    0    0    1    1.03372553    -10.8546675    225    1    1.08889    0.986667;
    246    1    0    0    0    0    1    1.08330278    -4.59795122    380    1    1.10526    1;
    2609    1    0    0    0    0    1    1.08216675    -4.65656581    380    1    1.10526    1;
    2610    1    0    0    0    0    1    1.08333167    -4.60468491    380    1    1.10526    1;
    2611    1    0    0    0    0    1    1.0821875    -4.66695353    380    1    1.10526    1;
    247    1    42.1    16.7    0    0    1    1.05530716    -11.8000114    225    1    1.08889    0.924444;
    248    1    24.3    1.4    0    0    1    1.01037357    -15.6624609    63    1    1.06349    0.936508;
    249    1    13.6    -1.2    0    0    1    0.988372119    -18.395922    63    1    1.06349    0.936508;
    250    1    -2.7    0    0    0    1    1.02879773    -17.3967958    225    1    1.08889    0.986667;
    251    1    87.5    47.6    0    0    1    1.05105895    -23.8594833    225    1    1.08684    1;
    252    2    -0    0    0    0    1    0.952    -10.693816    45    1    1    0.888889;
    253    1    -0.9    0.5    0    0    1    1.06739339    -1.95901453    380    1    1.10263    1;
    254    1    -0.4    0.5    0    0    1    1.06742899    -1.97694925    380    1    1.10263    1;
    255    1    5.8    -0.5    0    0    1    1.04108714    -15.6924303    63    1    1.06754    0.936508;