function mpc = case2746wop_res
%CASE2746WOP_RES

%% MATPOWER Case Format : Version 2
mpc.version = '2';

%%-----  Power Flow Data  -----%%
%% system MVA base
mpc.baseMVA = 100;

%% bus data
%	bus_i	type	Pd	Qd	Gs	Bs	area	Vm	Va	baseKV	zone	Vmax	Vmin	lam_P	lam_Q	mu_Vmax	mu_Vmin
mpc.bus = [
	1	1	0	0	0	0	1	1.08072024	-5.8656392	220	1	1.11	0.95	91.0752	0.1612	0.0000	0.0000;
	2	1	0	0	0	0	1	1.08283934	-2.42497931	220	1	1.11	0.95	90.2372	0.0981	0.0000	0.0000;
	3	1	0	0	0	0	1	1.06735251	-23.6471239	220	1	1.11	0.95	99.4746	0.0556	0.0000	0.0000;
	4	1	0	0	0	0	1	1.07044868	-8.95168089	220	1	1.11	0.95	92.5348	0.2170	0.0000	0.0000;
	5	1	0	0	0	0	1	1.07046121	-8.95831652	220	1	1.11	0.95	92.5362	0.2166	0.0000	0.0000;
	6	1	0	0	0	0	1	1.05645673	-17.5122653	220	1	1.11	0.95	95.7776	0.0797	0.0000	0.0000;
	7	1	0	0	0	0	1	1.05653722	-17.5091	220	1	1.11	0.95	95.7746	0.0792	0.0000	0.0000;
	8	1	0	0	0	-50	1	1.01812962	-15.219915	400	1	1.05	0.95	95.4057	-0.1452	0.0000	0.0000;
	9	1	0	0	0	0	1	1.01817788	-15.222786	400	1	1.05	0.95	95.4074	-0.1448	0.0000	0.0000;
	10	1	0	0	0	0	1	1.04966858	-17.4641806	220	1	1.11	0.95	96.2651	0.1446	0.0000	0.0000;
	11	1	0	0	0	0	1	1.04958925	-17.4780955	220	1	1.11	0.95	96.2675	0.1441	0.0000	0.0000;
	12	1	0	0	0	0	1	1.04962325	-17.4704285	220	1	1.11	0.95	96.2643	0.1418	0.0000	0.0000;
	13	1	0	0	0	-50	1	1.00849664	-13.4047571	400	1	1.05	0.95	94.7302	0.1268	0.0000	0.0000;
	14	1	0	0	0	0	1	1.00860152	-13.3992064	400	1	1.05	0.95	94.7274	0.1254	0.0000	0.0000;
	15	1	0	0	0	0	1	1.02252065	-16.520875	400	1	1.05	0.95	95.2293	-1.3509	0.0000	0.0000;
	16	1	0	0	0	0	1	1.02252065	-16.520875	400	1	1.05	0.95	95.2293	-1.3509	0.0000	0.0000;
	17	2	2.302	31	0	0	1	1.09088	-19.6309541	220	1	1.11	0.95	97.2041	-0.0000	0.0000	0.0000;
	18	2	9.7	40	0	0	1	1.09091	-19.632692	220	1	1.11	0.95	97.2054	0.0000	0.0000	0.0000;
	19	1	0	0	0	0	1	1.07398501	-8.13136355	220	1	1.11	0.95	92.1699	0.2155	0.0000	0.0000;
	20	1	0	0	0	0	1	1.07398097	-8.12746898	220	1	1.11	0.95	92.1708	0.2158	0.0000	0.0000;
	21	1	0	0	0	0	1	1.07137978	-19.2544352	220	1	1.11	0.95	97.1328	0.0143	0.0000	0.0000;
	22	1	0	0	0	0	1	1.07137978	-19.2544352	220	1	1.11	0.95	97.1328	0.0143	0.0000	0.0000;
	23	1	0	0	0	0	1	1.05021395	-17.3972427	220	1	1.11	0.95	96.1970	0.0700	0.0000	0.0000;
	24	1	0	0	0	0	1	1.07653088	-6.00540133	220	1	1.11	0.95	91.4932	0.1722	0.0000	0.0000;
	25	1	0	0	0	-50	1	1.01981727	-18.250402	400	1	1.05	0.95	97.1084	0.9915	0.0000	0.0000;
	26	2	28.565	42.054	0	0	1	1.09091	-5.67580958	220	1	1.11	0.95	90.9717	-0.0000	0.0000	0.0000;
	27	2	85.005	122.06	0	0	1	1.09091	-2.20094309	220	1	1.11	0.95	90.1299	0.0000	1246.2206	0.0000;
	28	3	44.783	80	0	0	1	1.0325	-4.412957	400	1	1.05	0.95	91.1767	-0.0000	0.0000	0.0000;
	29	2	60.097	90	0	0	1	1.0325	-4.4037887	400	1	1.05	0.95	91.1718	-0.0017	0.0000	0.0000;
	30	1	0	0	0	0	1	1.05724277	-18.6884384	220	1	1.11	0.95	97.0716	0.1704	0.0000	0.0000;
	31	1	0	0	0	0	1	1.03217412	-5.4529957	400	1	1.05	0.95	91.2070	-0.3208	0.0000	0.0000;
	32	1	0	0	0	0	1	1.04744396	-17.6194315	220	1	1.11	0.95	96.3326	0.1655	0.0000	0.0000;
	33	1	0	0	0	0	1	1.07653528	-6.00447717	220	1	1.11	0.95	91.4930	0.1722	0.0000	0.0000;
	34	1	0	0	0	0	1	1.07177813	-11.952961	220	1	1.11	0.95	93.7432	0.1876	0.0000	0.0000;
	35	1	0	0	0	0	1	1.08494195	-15.1355131	220	2	1.11	0.95	94.7883	-0.8657	0.0000	0.0000;
	36	1	0	0	0	0	1	1.0809225	-15.6181116	220	2	1.11	0.95	95.3394	-0.8172	0.0000	0.0000;
	37	1	0	0	0	0	1	1.08884602	-14.6285165	220	2	1.11	0.95	94.7038	-1.0768	0.0000	0.0000;
	38	1	0	0	0	0	1	1.08882818	-14.6314262	220	2	1.11	0.95	94.7053	-1.0765	0.0000	0.0000;
	39	1	0	0	0	0	1	1.07632176	-16.202833	220	2	1.11	0.95	95.6296	-0.6557	0.0000	0.0000;
	40	1	0	0	0	0	1	1.10026392	-13.840723	220	2	1.11	0.95	94.1415	-3.4975	20377.2614	0.0000;
	41	1	0	0	0	0	1	1.10018384	-13.8438684	220	2	1.11	0.95	94.1434	-3.4837	0.0000	0.0000;
	42	1	0	0	0	0	1	1.01858208	-13.9046072	400	2	1.05	0.95	94.2405	-2.4059	0.0000	0.0000;
	43	2	12	0	0	0	1	1.09091	-13.8017807	220	2	1.11	0.95	94.2528	-0.6891	0.0000	0.0000;
	44	2	24	0	0	0	1	1.09096	-13.7866195	220	2	1.11	0.95	94.2488	-0.6908	0.0000	0.0000;
	45	2	20	0	0	0	1	1.0325	-13.6393791	400	2	1.05	0.95	94.5600	-0.5862	0.0000	0.0000;
	46	1	0	0	0	0	1	1.03244093	-13.6412597	400	2	1.05	0.95	94.5595	-0.5865	0.0000	0.0000;
	47	1	0	0	0	0	1	1.09860182	-14.2777822	220	2	1.11	0.95	94.4268	-3.3016	0.0000	0.0000;
	48	1	0	0	0	0	1	1.02470735	-17.6605977	400	2	1.05	0.95	95.6142	-0.6768	0.0000	0.0000;
	49	1	0	0	0	0	1	1.02468981	-17.6663658	400	2	1.05	0.95	95.6169	-0.6759	0.0000	0.0000;
	50	1	0	0	0	0	1	1.02420574	-14.1048579	400	2	1.05	0.95	94.6694	-0.6383	0.0000	0.0000;
	51	1	0	0	0	0	1	1.07941627	-15.3130586	220	2	1.11	0.95	95.0503	-0.6626	0.0000	0.0000;
	52	1	0	0	0	0	1	1.07942208	-15.3098997	220	2	1.11	0.95	95.0503	-0.6619	0.0000	0.0000;
	53	1	0	0	0	0	1	1.03133546	-14.3872508	400	2	1.05	0.95	94.6640	-1.0822	0.0000	0.0000;
	54	1	0	0	0	0	1	1.0313503	-14.3875421	400	2	1.05	0.95	94.6638	-1.0834	0.0000	0.0000;
	55	2	12	0	0	0	1	1.09121	-13.7299386	220	2	1.11	0.95	94.2858	-1.1741	0.0000	0.0000;
	56	2	12	0	0	0	1	1.09115	-13.7298241	220	2	1.11	0.95	94.2831	-1.1766	0.0000	0.0000;
	57	2	12	0	0	0	1	1.03336	-14.0261107	400	2	1.05	0.95	94.4699	-1.2205	0.0000	0.0000;
	58	2	12	0	0	0	1	1.03337	-14.0310075	400	2	1.05	0.95	94.4716	-1.2215	0.0000	0.0000;
	59	2	170.733	62	0	0	1	1.08415	-14.8437699	220	2	1.11	0.95	94.7184	-0.7196	0.0000	0.0000;
	60	1	0	0	0	0	1	1.08420068	-14.8395982	220	2	1.11	0.95	94.7166	-0.7200	0.0000	0.0000;
	61	1	0	0	0	0	1	1.09523029	-14.419011	220	2	1.11	0.95	94.4607	-2.8150	0.0000	0.0000;
	62	1	0	0	0	0	1	1.08798735	-14.594008	220	2	1.11	0.95	94.7122	-1.2575	0.0000	0.0000;
	63	1	0	0	0	0	1	1.08796431	-14.5958391	220	2	1.11	0.95	94.7125	-1.2535	0.0000	0.0000;
	64	1	0	0	0	0	1	1.03424111	-15.2832959	400	2	1.05	0.95	94.8460	-0.9549	0.0000	0.0000;
	65	1	0	0	0	0	1	1.03421012	-15.2943803	400	2	1.05	0.95	94.8501	-0.9534	0.0000	0.0000;
	66	1	0	0	0	0	1	1.0869817	-15.4023009	220	2	1.11	0.95	95.0154	-0.9744	0.0000	0.0000;
	67	1	0	0	0	0	1	1.08775955	-15.2367155	220	2	1.11	0.95	94.9206	-0.9983	0.0000	0.0000;
	68	1	0	0	0	0	1	1.08055069	-14.6283281	220	2	1.11	0.95	94.7452	-0.5656	0.0000	0.0000;
	69	1	0	0	0	0	1	1.08300292	-9.42575974	220	3	1.11	0.95	92.5536	-0.4363	0.0000	0.0000;
	70	1	6.8	0	0	0	1	1.09314292	-14.863145	220	3	1.11	0.95	94.8577	-0.6622	0.0000	0.0000;
	71	1	11.331	2.43	0	0	1	1.09300561	-14.8709633	220	3	1.11	0.95	94.8625	-0.6605	0.0000	0.0000;
	72	1	0	0	0	0	1	1.08791024	-13.6386049	220	3	1.11	0.95	94.4287	0.0529	0.0000	0.0000;
	73	1	0	0	0	0	1	1.0879388	-13.6228665	220	3	1.11	0.95	94.4232	0.0520	0.0000	0.0000;
	74	1	0	0	0	0	1	1.08779177	-10.9914959	220	3	1.11	0.95	92.8448	-0.0061	0.0000	0.0000;
	75	1	0	0	0	0	1	1.08777356	-10.9966964	220	3	1.11	0.95	92.8468	-0.0061	0.0000	0.0000;
	76	1	0	0	0	0	1	1.08810942	-18.0850542	220	3	1.11	0.95	96.4839	-0.1590	0.0000	0.0000;
	77	1	0	0	0	0	1	1.08807187	-18.0973161	220	3	1.11	0.95	96.4888	-0.1583	0.0000	0.0000;
	78	2	26.999	69.999	0	0	1	1.09091	-12.5574207	220	3	1.11	0.95	93.8755	0.0000	0.0000	0.0000;
	79	2	8.999	20.999	0	0	1	1.09034	-13.1237485	220	3	1.11	0.95	94.1106	-0.1274	0.0000	0.0000;
	80	1	10.085	1.376	0	0	1	1.08163194	-12.8872015	220	3	1.11	0.95	94.2409	0.1606	0.0000	0.0000;
	81	1	0	0	0	0	1	1.081661	-12.8908029	220	3	1.11	0.95	94.2426	0.1602	0.0000	0.0000;
	82	2	34.999	107.999	0	0	1	1.02993	-6.6501621	400	3	1.05	0.95	91.2673	-0.2746	0.0000	0.0000;
	83	1	0	0	0	0	1	1.08488239	-10.5581322	220	3	1.11	0.95	92.2247	0.1083	0.0000	0.0000;
	84	1	0	0	0	0	1	1.08849519	-11.6777902	220	3	1.11	0.95	93.1712	0.0061	0.0000	0.0000;
	85	1	0	0	0	0	1	1.08849035	-11.6876601	220	3	1.11	0.95	93.1761	0.0057	0.0000	0.0000;
	86	1	44.148	10.561	0	0	1	1.08343486	-9.50424908	220	3	1.11	0.95	92.5076	-0.3943	0.0000	0.0000;
	87	1	0	0	0	0	1	1.08341742	-9.50951269	220	3	1.11	0.95	92.5093	-0.3942	0.0000	0.0000;
	88	1	0	0	0	0	1	1.08506436	-11.6546479	220	3	1.11	0.95	93.2279	0.1169	0.0000	0.0000;
	89	1	0	0	0	0	1	1.08505676	-11.6617823	220	3	1.11	0.95	93.2313	0.1172	0.0000	0.0000;
	90	1	0	0	0	0	1	1.08588955	-9.05522832	220	3	1.11	0.95	92.3093	-0.4196	0.0000	0.0000;
	91	1	0	0	0	0	1	1.08588736	-9.05077193	220	3	1.11	0.95	92.3084	-0.4230	0.0000	0.0000;
	92	1	0	0	0	0	1	1.03483815	-6.77378356	400	3	1.05	0.95	91.9021	-0.2194	0.0000	0.0000;
	93	1	0	0	0	0	1	1.03483992	-6.7740858	400	3	1.05	0.95	91.9019	-0.2193	0.0000	0.0000;
	94	1	0	0	0	0	1	1.08941603	-10.9926684	220	3	1.11	0.95	92.6759	0.0145	0.0000	0.0000;
	95	1	0	0	0	0	1	1.08941713	-10.9926107	220	3	1.11	0.95	92.6753	0.0147	0.0000	0.0000;
	96	1	0	0	0	0	1	1.08539003	-10.7229739	220	3	1.11	0.95	92.5431	0.0805	0.0000	0.0000;
	97	1	0	0	0	0	1	1.08539435	-10.7222042	220	3	1.11	0.95	92.5417	0.0805	0.0000	0.0000;
	98	1	17.111	6.317	0	0	1	1.08740288	-12.812819	220	3	1.11	0.95	93.9483	-0.3273	0.0000	0.0000;
	99	1	0	0	0	0	1	1.08738721	-12.8085629	220	3	1.11	0.95	93.9468	-0.3292	0.0000	0.0000;
	100	1	0	0	0	0	1	1.09317616	-14.8452211	220	3	1.11	0.95	94.8491	-0.6629	0.0000	0.0000;
	101	1	0	0	0	0	1	1.0931725	-14.8470846	220	3	1.11	0.95	94.8497	-0.6616	0.0000	0.0000;
	102	1	0	0	0	0	1	1.08716635	-17.299144	220	3	1.11	0.95	96.1741	-0.0690	0.0000	0.0000;
	103	1	0	0	0	0	1	1.08710608	-17.2866521	220	3	1.11	0.95	96.1712	-0.0678	0.0000	0.0000;
	104	2	13.999	39.999	0	0	1	1.09091	-11.0166073	220	3	1.11	0.95	92.7800	0.0000	0.0000	0.0000;
	105	2	0	0	0	0	1	1.09091239	-11.0295343	220	3	1.11	0.95	92.7824	-0.0003	0.0000	0.0000;
	106	2	6.999	17.999	0	0	1	1.09091	-10.877173	220	3	1.11	0.95	92.7163	0.0000	0.0000	0.0000;
	107	2	7.999	14.999	0	0	1	1.09091	-10.8801411	220	3	1.11	0.95	92.7189	0.0002	0.0000	0.0000;
	108	1	52.726	17.138	0	0	1	1.08544644	-12.3047097	220	3	1.11	0.95	93.7112	-0.5284	0.0000	0.0000;
	109	1	56.444	10.902	0	0	1	1.08549228	-12.3183808	220	3	1.11	0.95	93.7153	-0.5333	0.0000	0.0000;
	110	1	0	0	0	0	1	1.08713713	-14.0142188	220	3	1.11	0.95	94.7342	-0.0907	0.0000	0.0000;
	111	1	0	0	0	0	1	1.07688891	-11.9144845	220	3	1.11	0.95	93.5850	0.3044	0.0000	0.0000;
	112	1	0	0	0	0	1	1.07692617	-11.9192193	220	3	1.11	0.95	93.5870	0.3038	0.0000	0.0000;
	113	1	0	0	0	0	1	1.08330289	-13.1488694	220	3	1.11	0.95	94.3987	0.1266	0.0000	0.0000;
	114	1	0	0	0	0	1	1.08335807	-13.1443468	220	3	1.11	0.95	94.3959	0.1257	0.0000	0.0000;
	115	1	0	0	0	0	1	1.02731794	-9.40709983	400	3	1.05	0.95	92.5453	-0.1809	0.0000	0.0000;
	116	2	0	0	0	0	1	1.0904575	-12.9122092	220	3	1.11	0.95	94.0393	-0.1175	0.0000	0.0000;
	117	2	7.999	14.999	0	0	1	1.09046	-12.9027211	220	3	1.11	0.95	94.0370	-0.1170	0.0000	0.0000;
	118	2	5.499	9.999	0	0	1	1.089	-13.5594393	220	3	1.11	0.95	94.4918	-0.2638	0.0000	0.0000;
	119	1	0	0	0	0	1	1.08904128	-13.5652172	220	3	1.11	0.95	94.4941	-0.2640	0.0000	0.0000;
	120	1	0	0	0	0	1	1.03590426	-13.9865452	400	3	1.05	0.95	94.4477	-0.9211	0.0000	0.0000;
	121	1	0	0	0	0	1	1.03593183	-13.9791836	400	3	1.05	0.95	94.4444	-0.9215	0.0000	0.0000;
	122	1	0	0	0	0	1	1.0309273	-9.5716209	400	3	1.05	0.95	92.6467	-0.2911	0.0000	0.0000;
	123	1	0	0	0	0	1	1.03096231	-9.57002349	400	3	1.05	0.95	92.6469	-0.2918	0.0000	0.0000;
	124	1	0	0	0	0	1	1.08626913	-14.0338889	220	3	1.11	0.95	94.7830	-0.1073	0.0000	0.0000;
	125	2	19.213	21.474	0	0	1	1.09091	-9.94929913	220	3	1.11	0.95	92.2959	0.0000	312.7178	0.0000;
	126	2	30.672	33.602	0	0	1	1.09082	-9.95745024	220	3	1.11	0.95	92.3016	0.0014	0.0000	0.0000;
	127	2	27.999	65.999	0	0	1	1.02869	-8.30630786	400	3	1.05	0.95	92.1616	-0.1196	0.0000	0.0000;
	128	1	0	0	0	0	1	1.02866776	-8.31637232	400	3	1.05	0.95	92.1654	-0.1198	0.0000	0.0000;
	129	1	0	0	0	0	1	1.08297884	-9.6137002	220	3	1.11	0.95	92.5556	-0.3920	0.0000	0.0000;
	130	1	0	0	0	0	1	1.08298958	-9.61252205	220	3	1.11	0.95	92.5538	-0.3914	0.0000	0.0000;
	131	1	0	0	0	0	1	1.08476917	-9.4319565	220	3	1.11	0.95	92.4642	-0.3832	0.0000	0.0000;
	132	2	271.999	-62.001	0	0	1	1.08945977	-18.9310326	220	3	1.11	0.95	96.8483	-0.2373	0.0000	0.0000;
	133	2	266.5	-24.8	0	0	1	1.08734498	-18.915668	220	3	1.11	0.95	96.8472	-0.1873	0.0000	0.0000;
	134	2	14.931	12.88	0	0	1	1.08882	-13.9030315	220	4	1.11	0.95	94.6117	-0.0000	0.0000	0.0000;
	135	2	8.013	6.525	0	0	1	1.0886851	-13.9120505	220	4	1.11	0.95	94.6144	0.0011	0.0000	0.0000;
	136	1	0	0	0	0	1	1.07896617	-16.878419	220	4	1.11	0.95	95.3127	0.0668	0.0000	0.0000;
	137	1	0	0	0	0	1	1.08463638	-16.4069691	220	4	1.11	0.95	95.0213	0.0193	0.0000	0.0000;
	138	1	0	0	0	0	1	1.02781789	-13.8766968	400	4	1.05	0.95	93.9007	-0.5766	0.0000	0.0000;
	139	1	0	0	0	0	1	1.02785649	-13.8725084	400	4	1.05	0.95	93.8981	-0.5778	0.0000	0.0000;
	140	1	0	0	0	0	1	1.10014275	-23.3240744	220	4	1.11	0.95	99.9483	-2.0055	0.0000	0.0000;
	141	1	0	0	0	0	1	1.08265532	-25.8739079	220	4	1.11	0.95	101.9983	-1.4777	0.0000	0.0000;
	142	1	0	0	0	0	1	1.08265532	-25.8739079	220	4	1.11	0.95	101.9983	-1.4777	0.0000	0.0000;
	143	1	0	0	0	0	1	1.09163519	-24.4265181	220	4	1.11	0.95	100.4360	-1.3126	0.0000	0.0000;
	144	1	0	0	0	0	1	1.08607803	-15.5448565	220	4	1.11	0.95	93.9070	-0.1480	0.0000	0.0000;
	145	1	0	0	0	0	1	1.08607803	-15.5448565	220	4	1.11	0.95	93.9070	-0.1480	0.0000	0.0000;
	146	2	55.255	6.955	0	0	1	1.09012	-17.5065735	220	4	1.11	0.95	96.4200	-0.0195	0.0000	0.0000;
	147	2	10.077	8.4	0	0	1	1.09015688	-17.516121	220	4	1.11	0.95	96.4222	-0.0209	0.0000	0.0000;
	148	2	11.5	6.86	0	0	1	1.09091	-25.033542	220	4	1.11	0.95	101.4573	-1.5655	0.0000	0.0000;
	149	1	4.423	1.347	0	0	1	1.09083807	-25.0473915	220	4	1.11	0.95	101.4641	-1.5657	0.0000	0.0000;
	150	2	12.633	6.828	0	0	1	1.03246	-26.656148	400	4	1.05	0.95	101.8467	-1.7352	0.0000	0.0000;
	151	2	12.397	10.045	0	0	1	1.0325	-26.6623515	400	4	1.05	0.95	101.8493	-1.7356	0.0000	0.0000;
	152	1	0	0	0	0	1	1.08304656	-23.2990312	220	4	1.11	0.95	100.3568	-1.5484	0.0000	0.0000;
	153	1	0	0	0	0	1	1.08481617	-22.4325926	220	4	1.11	0.95	99.1685	-0.6388	0.0000	0.0000;
	154	1	0	0	0	0	1	1.08485637	-22.4262739	220	4	1.11	0.95	99.1650	-0.6388	0.0000	0.0000;
	155	2	33.593	44.976	0	0	1	1.09091	-14.680157	220	4	1.11	0.95	94.1898	0.0000	0.0000	0.0000;
	156	2	33.832	45.07	0	0	1	1.09091	-14.746691	220	4	1.11	0.95	94.4125	0.0000	0.0000	0.0000;
	157	1	0	0	0	0	1	1.09091	-14.680157	220	4	1.11	0.95	94.1898	0.0000	0.0000	0.0000;
	158	1	0	0	0	0	1	1.00550767	-13.6138223	400	4	1.05	0.95	94.1427	-0.1131	0.0000	0.0000;
	159	2	8.687	17.49	0	0	1	1.00535	-13.6109175	400	4	1.05	0.95	94.1427	-0.1124	0.0000	0.0000;
	160	1	0	0	0	0	1	1.08893823	-26.0017999	220	4	1.11	0.95	102.0466	-1.6448	0.0000	0.0000;
	161	1	0	0	0	0	1	1.08893823	-26.0017999	220	4	1.11	0.95	102.0466	-1.6448	0.0000	0.0000;
	162	1	0	0	0	0	1	1.03628646	-13.0167559	400	4	1.05	0.95	93.1599	-2.0147	8269.9647	0.0000;
	163	1	0	0	0	0	1	1.03417181	-12.0685994	400	4	1.05	0.95	92.9831	-0.9545	0.0000	0.0000;
	164	1	0	0	0	0	1	1.03416224	-12.0751728	400	4	1.05	0.95	92.9864	-0.9533	0.0000	0.0000;
	165	2	5.495	9.587	0	0	1	1.09084	-17.7666614	220	4	1.11	0.95	96.5419	-0.0000	0.0000	0.0000;
	166	2	10.099	4.886	0	0	1	1.09091	-17.7842899	220	4	1.11	0.95	96.5512	0.0012	0.0000	0.0000;
	167	1	14.36	13.623	0	0	1	1.09081138	-17.7679549	220	4	1.11	0.95	96.5424	0.0004	0.0000	0.0000;
	168	1	0	0	0	0	1	1.10927866	-28.898195	220	4	1.11	0.95	103.3368	-2.2224	0.0000	0.0000;
	169	1	0	0	0	0	1	1.08379765	-25.9397889	220	4	1.11	0.95	102.0493	-1.5190	0.0000	0.0000;
	170	1	0	0	0	0	1	1.10647886	-24.311329	220	4	1.11	0.95	100.5561	-2.7733	11480.4692	0.0000;
	171	1	0	0	0	0	1	1.10637526	-24.310313	220	4	1.11	0.95	100.5570	-2.7618	0.0000	0.0000;
	172	1	0	0	0	0	1	0.964197689	-25.4265978	400	4	1.05	0.95	100.9598	-2.1379	0.0000	0.0000;
	173	1	0	0	0	0	1	0.964197689	-25.4265978	400	4	1.05	0.95	100.9598	-2.1379	0.0000	0.0000;
	174	1	0	0	0	0	1	1.06931323	-21.6637287	220	4	1.11	0.95	99.3692	-0.3413	0.0000	0.0000;
	175	1	0	0	0	0	1	1.06931905	-21.6616174	220	4	1.11	0.95	99.3693	-0.3411	0.0000	0.0000;
	176	1	0	0	0	0	1	1.10449174	-24.5486579	220	4	1.11	0.95	100.6723	-2.6840	0.0000	0.0000;
	177	1	0	0	0	0	1	1.08265478	-16.3040221	220	4	1.11	0.95	94.9201	-0.0123	0.0000	0.0000;
	178	1	0	0	0	0	1	1.08267328	-16.2987549	220	4	1.11	0.95	94.9186	-0.0124	0.0000	0.0000;
	179	1	0	0	0	0	1	1.08288782	-15.2122363	220	4	1.11	0.95	94.3367	0.0111	0.0000	0.0000;
	180	1	0	0	0	0	1	1.08288782	-15.2122363	220	4	1.11	0.95	94.3367	0.0111	0.0000	0.0000;
	181	1	0	0	0	0	1	1.06797014	-22.4920839	220	4	1.11	0.95	99.6432	-0.3535	0.0000	0.0000;
	182	1	0	0	0	0	1	1.07535639	-25.6475933	220	5	1.11	0.95	101.1180	0.8305	0.0000	0.0000;
	183	1	0	0	0	0	1	1.12454161	-32.4282525	220	5	1.11	0.95	104.4421	-1.8081	1861.5694	0.0000;
	184	1	0	0	0	0	1	1.04192616	-32.055661	400	5	1.05	0.95	104.1476	-1.2745	0.0000	0.0000;
	185	1	0	0	0	0	1	1.04191725	-32.0487866	400	5	1.05	0.95	104.1440	-1.2754	0.0000	0.0000;
	186	1	0	0	0	0	1	1.03923974	-34.3483631	400	5	1.05	0.95	105.1032	0.3110	0.0000	0.0000;
	187	1	0	0	0	0	1	1.03927581	-34.3558182	400	5	1.05	0.95	105.1071	0.3094	0.0000	0.0000;
	188	1	0	0	0	0	1	1.11324502	-32.8078024	220	5	1.11	0.95	105.5364	-0.0614	0.0000	0.0000;
	189	1	0	0	0	0	1	1.11327808	-32.8110033	220	5	1.11	0.95	105.5370	-0.0635	0.0000	0.0000;
	190	1	0	0	0	0	1	1.07844297	-27.7105527	220	5	1.11	0.95	102.4103	1.1790	0.0000	0.0000;
	191	1	0	0	0	0	1	1.07850206	-27.7085955	220	5	1.11	0.95	102.4091	1.1774	0.0000	0.0000;
	192	1	0	0	0	0	1	1.02010346	-27.180198	400	5	1.05	0.95	101.7977	1.2095	0.0000	0.0000;
	193	1	0	0	0	0	1	1.08122446	-25.2586621	220	5	1.11	0.95	100.9086	0.8349	0.0000	0.0000;
	194	1	0	0	0	0	1	1.08121149	-25.2558323	220	5	1.11	0.95	100.9088	0.8356	0.0000	0.0000;
	195	1	0	0	0	0	1	1.04461995	-33.5557724	400	5	1.05	0.95	104.9447	0.3712	0.0000	0.0000;
	196	1	0	0	0	0	1	1.04461255	-33.5536394	400	5	1.05	0.95	104.9441	0.3718	0.0000	0.0000;
	197	1	0	0	0	0	1	1.09685899	-27.8360223	220	5	1.11	0.95	102.9941	0.7578	0.0000	0.0000;
	198	1	0	0	0	0	1	1.09679612	-27.8292126	220	5	1.11	0.95	102.9894	0.7586	0.0000	0.0000;
	199	1	0	0	0	0	1	1.0442658	-33.5592534	400	5	1.05	0.95	104.7693	-0.7581	0.0000	0.0000;
	200	1	0	0	0	0	1	1.04430965	-33.5467889	400	5	1.05	0.95	104.7640	-0.7604	0.0000	0.0000;
	201	1	0	0	0	0	1	1.06404832	-27.4408081	220	5	1.11	0.95	102.9710	1.4267	0.0000	0.0000;
	202	1	0	0	0	0	1	1.06400429	-27.4349371	220	5	1.11	0.95	102.9701	1.4270	0.0000	0.0000;
	203	1	0	0	0	0	1	1.05766842	-25.0002173	220	5	1.11	0.95	101.7793	1.3935	0.0000	0.0000;
	204	1	0	0	0	0	1	1.05761884	-25.0141067	220	5	1.11	0.95	101.7861	1.3950	0.0000	0.0000;
	205	2	619.912	0	0	0	1	1.0325	-36.5237977	400	5	1.05	0.95	105.9174	0.0002	0.0000	0.0000;
	206	2	205.255	0	0	0	1	1.0325	-36.5219275	400	5	1.05	0.95	105.9164	0.0017	0.0000	0.0000;
	207	1	0	0	0	0	1	1.11389878	-32.805941	220	5	1.11	0.95	105.0012	-1.5779	0.0000	0.0000;
	208	1	0	0	0	0	1	1.11394258	-32.8090723	220	5	1.11	0.95	105.0011	-1.5767	0.0000	0.0000;
	209	1	5.821	1.5	0	0	1	1.0592836	-20.0297906	110	1	1.12	0.95	97.9657	-1.5205	0.0000	0.0000;
	210	1	4.366	0.5	0	0	1	1.07618118	-27.9033102	110	1	1.12	0.95	103.1849	0.2755	0.0000	0.0000;
	211	1	7.761	2	0	0	1	1.05674965	-18.883727	110	1	1.12	0.95	96.0243	0.2300	0.0000	0.0000;
	212	1	6.306	5.6	0	0	1	1.00608784	-22.287368	110	1	1.12	0.95	101.0962	1.8801	0.0000	0.0000;
	213	1	2.523	0.6	0	0	1	1.03909253	-5.13720733	110	1	1.12	0.95	91.0765	0.2527	0.0000	0.0000;
	214	1	4.851	1.3	0	0	1	1.0564201	-7.7599436	110	1	1.12	0.95	91.6312	0.2877	0.0000	0.0000;
	215	2	19.194	8	0	0	1	1.08646	-18.1179657	110	1	1.12	0.95	94.4391	-2.1719	0.0000	0.0000;
	216	1	14.553	1.5	0	0	1	1.08767803	-18.3676521	110	1	1.12	0.95	94.6502	-2.3622	0.0000	0.0000;
	217	1	4.851	1	0	0	1	1.08724545	-18.3181387	110	1	1.12	0.95	94.6099	-2.3129	0.0000	0.0000;
	218	1	4.851	1	0	0	1	1.08697455	-18.4262261	110	1	1.12	0.95	94.6648	-2.1363	0.0000	0.0000;
	219	2	8.247	1.6	0	0	1	1.04401	-21.6301618	110	1	1.12	0.95	99.1137	0.2069	0.0000	0.0000;
	220	1	5.822	1.5	0	0	1	1.03737988	-19.8575195	110	1	1.12	0.95	97.3759	0.5103	0.0000	0.0000;
	221	2	0	0	0	0	1	1.06307	-17.1997783	110	1	1.12	0.95	93.9195	-1.0326	0.0000	0.0000;
	222	2	6.306	1.5	0	0	1	1.04886	-11.7930728	110	1	1.12	0.95	94.1379	-0.3592	0.0000	0.0000;
	223	2	15.523	2.6	0	0	1	1.05723	-21.1328614	110	1	1.12	0.95	97.6954	0.3471	0.0000	0.0000;
	224	1	1.649	0.4	0	0	1	1.02837271	-7.17287525	110	1	1.12	0.95	92.5272	0.3817	0.0000	0.0000;
	225	1	2.425	0.2	0	0	1	1.08690439	-23.9582717	110	1	1.12	0.95	99.5630	1.1050	0.0000	0.0000;
	226	1	2.911	0.5	0	0	1	1.0918075	-24.4035185	110	1	1.12	0.95	99.4114	-0.3934	0.0000	0.0000;
	227	1	10.672	0.499	0	0	1	1.07836432	-19.4119191	110	1	1.12	0.95	96.3484	-2.3882	0.0000	0.0000;
	228	1	6.791	2	0	0	1	1.05755344	-21.6472354	110	1	1.12	0.95	98.0529	0.4670	0.0000	0.0000;
	229	2	2.231	1.05	0	0	1	1.06367	-11.9123349	110	1	1.12	0.95	93.6474	0.1449	0.0000	0.0000;
	230	2	2.231	1.05	0	0	1	1.06392	-11.9137389	110	1	1.12	0.95	93.6442	0.1324	0.0000	0.0000;
	231	1	11.642	6	0	0	1	1.04482581	-21.3198833	110	1	1.12	0.95	98.2694	0.6446	0.0000	0.0000;
	232	1	4.366	1	0	0	1	1.05742353	-7.64985418	110	1	1.12	0.95	91.5210	0.2702	0.0000	0.0000;
	233	1	8.732	1	0	0	1	1.05431444	-15.2509936	110	1	1.12	0.95	95.3342	-0.9151	0.0000	0.0000;
	234	1	16.493	14	0	0	1	1.03575478	-5.83685637	110	1	1.12	0.95	91.0046	0.4646	0.0000	0.0000;
	235	1	3.978	0.5	0	0	1	1.06921547	-24.3942241	110	1	1.12	0.95	100.5388	0.2160	0.0000	0.0000;
	236	1	8.926	3.64	0	0	1	1.06352116	-11.1841543	110	1	1.12	0.95	92.7618	0.0930	0.0000	0.0000;
	237	1	4.463	0.3	0	0	1	1.06814165	-24.4457557	110	1	1.12	0.95	100.5926	0.2108	0.0000	0.0000;
	238	1	5.821	1	0	0	1	1.07121712	-21.6417783	110	1	1.12	0.95	98.2355	-0.8153	0.0000	0.0000;
	239	2	4.305	1.175	0	0	1	1.03337	-21.5529308	110	1	1.12	0.95	98.9912	0.4628	0.0000	0.0000;
	240	1	7.471	1	0	0	1	1.0792067	-28.3491534	110	1	1.12	0.95	103.2622	1.0614	0.0000	0.0000;
	241	1	4.463	1.67	0	0	1	1.06578214	-11.4042785	110	1	1.12	0.95	93.0383	0.0889	0.0000	0.0000;
	242	1	6.791	0.7	0	0	1	1.09514523	-8.93982869	110	1	1.12	0.95	90.5300	-2.1839	0.0000	0.0000;
	243	1	0	0	0	0	1	1.0952205	-8.91716869	110	1	1.12	0.95	90.5298	-2.1929	0.0000	0.0000;
	244	1	2.231	1.4	0	0	1	1.08000782	-19.361822	110	1	1.12	0.95	96.4735	0.0294	0.0000	0.0000;
	245	1	0	0	0	0	1	1.04131937	-3.5106188	110	1	1.12	0.95	90.2340	0.1585	0.0000	0.0000;
	246	2	1.982	5	0	0	1	1.03502	0.0539686204	22	1	1.12	0.95	90.4966	-0.0000	0.0000	0.0000;
	247	1	6.792	1.5	0	0	1	1.08645589	-25.4918009	110	1	1.12	0.95	100.8349	-0.2724	0.0000	0.0000;
	248	1	1.94	0.5	0	0	1	1.0935477	-26.2446859	110	1	1.12	0.95	100.0227	0.2658	0.0000	0.0000;
	249	1	1.94	0.5	0	0	1	1.09421025	-24.610926	110	1	1.12	0.95	99.5626	-0.4745	0.0000	0.0000;
	250	1	2.911	0.5	0	0	1	1.05894769	-29.3141076	110	1	1.12	0.95	106.3598	0.1628	0.0000	0.0000;
	251	1	2.814	0.5	0	0	1	1.08042176	-21.6117835	110	1	1.12	0.95	97.7534	0.6924	0.0000	0.0000;
	252	1	10.672	7	0	0	1	1.05771901	-16.6950406	110	1	1.12	0.95	95.4129	0.6761	0.0000	0.0000;
	253	1	21.345	5	0	0	1	1.04591178	-21.5707741	110	1	1.12	0.95	98.4146	0.6450	0.0000	0.0000;
	254	1	8.732	2	0	0	1	1.08379392	-29.5366502	110	1	1.12	0.95	103.5618	0.7875	0.0000	0.0000;
	255	1	18.433	1	0	0	1	1.08711548	-23.7721478	110	1	1.12	0.95	98.9488	-0.7426	0.0000	0.0000;
	256	1	3.396	0.5	0	0	1	1.08907253	-23.9693324	110	1	1.12	0.95	99.0170	-0.6522	0.0000	0.0000;
	257	1	2.425	0.35	0	0	1	1.03829872	-4.88058534	110	1	1.12	0.95	91.2042	0.3070	0.0000	0.0000;
	258	1	2.425	0.35	0	0	1	1.03824297	-4.89149754	110	1	1.12	0.95	91.2077	0.3079	0.0000	0.0000;
	259	1	6.791	2.54	0	0	1	1.05632465	-12.5124141	110	1	1.12	0.95	94.3128	0.3101	0.0000	0.0000;
	260	1	4.851	1	0	0	1	1.05701208	-29.7019137	110	1	1.12	0.95	106.8301	0.1382	0.0000	0.0000;
	261	1	2.134	0.5	0	0	1	1.06489564	-19.195551	110	1	1.12	0.95	96.2820	0.0149	0.0000	0.0000;
	262	1	7.276	1.6	0	0	1	1.0524488	-18.8535416	110	1	1.12	0.95	96.6175	0.2253	0.0000	0.0000;
	263	1	0.776	0.5	0	0	1	1.07060018	-25.6116534	110	1	1.12	0.95	101.2008	0.3817	0.0000	0.0000;
	264	1	41.719	37	0	0	1	1.04178031	-3.98967201	110	1	1.12	0.95	90.3770	0.1907	0.0000	0.0000;
	265	1	43.66	40	0	0	1	1.04882611	-7.35562463	110	1	1.12	0.95	91.3202	0.4168	0.0000	0.0000;
	266	1	2.911	1	0	0	1	1.04730797	-20.7898386	110	1	1.12	0.95	97.8292	0.5128	0.0000	0.0000;
	267	1	8.247	0.7	0	0	1	1.05706267	-21.7639805	110	1	1.12	0.95	98.4136	0.0620	0.0000	0.0000;
	268	1	5.336	1.1	0	0	1	1.08637085	-21.5376832	110	1	1.12	0.95	97.6082	0.7979	0.0000	0.0000;
	269	1	7.761	1.5	0	0	1	1.07829542	-19.4201158	110	1	1.12	0.95	96.2427	-2.3531	0.0000	0.0000;
	270	1	5.821	1.5	0	0	1	1.06063618	-28.9209115	110	1	1.12	0.95	105.9202	0.1894	0.0000	0.0000;
	271	1	10.672	2.75	0	0	1	1.03911584	-19.5117329	110	1	1.12	0.95	96.9231	0.5788	0.0000	0.0000;
	272	1	0.098	0	0	0	1	1.0450837	-21.2308649	110	1	1.12	0.95	98.9419	0.2870	0.0000	0.0000;
	273	1	0.097	0.03	0	0	1	1.06480374	-18.55405	110	1	1.12	0.95	95.6030	0.0721	0.0000	0.0000;
	274	1	0.097	0.03	0	0	1	1.05653183	-19.1752804	110	1	1.12	0.95	96.2892	0.2756	0.0000	0.0000;
	275	1	7.451	3.94	0	0	1	1.07164633	-10.7184593	110	1	1.12	0.95	92.5317	0.2934	0.0000	0.0000;
	276	1	4.967	2.63	0	0	1	1.06929605	-11.1419095	110	1	1.12	0.95	92.6084	0.0659	0.0000	0.0000;
	277	1	5.239	1.2	0	0	1	1.05674768	-11.652123	110	1	1.12	0.95	93.7387	-0.4277	0.0000	0.0000;
	278	1	1.94	0	0	0	1	1.08531405	-19.4557027	110	1	1.12	0.95	95.6635	-1.6148	0.0000	0.0000;
	279	1	5.336	0	0	0	1	1.08219906	-21.1062128	110	1	1.12	0.95	97.3622	-0.5540	0.0000	0.0000;
	280	1	10.672	3	0	0	1	1.06143561	-19.2190013	110	1	1.12	0.95	96.3241	0.2345	0.0000	0.0000;
	281	1	7.761	1	0	0	1	1.04159573	-20.4527288	110	1	1.12	0.95	97.9373	0.5702	0.0000	0.0000;
	282	1	22.314	21	0	0	1	1.03820206	-6.95846024	110	1	1.12	0.95	91.3253	0.5187	0.0000	0.0000;
	283	1	15.524	13	0	0	1	1.03799833	-6.93527458	110	1	1.12	0.95	91.3228	0.5189	0.0000	0.0000;
	284	1	7.762	3.17	0	0	1	1.07239462	-10.5979544	110	1	1.12	0.95	92.4687	0.3590	0.0000	0.0000;
	285	1	10.672	1.6	0	0	1	1.06634936	-11.5107836	110	1	1.12	0.95	93.2850	0.3352	0.0000	0.0000;
	286	1	5.821	0.5	0	0	1	1.08971789	-24.0781278	110	1	1.12	0.95	99.1341	-0.2848	0.0000	0.0000;
	287	1	3.396	0	0	0	1	1.08612329	-20.3905974	110	1	1.12	0.95	96.0519	-1.6062	0.0000	0.0000;
	288	1	2.425	0.5	0	0	1	1.03485022	-21.1214783	110	1	1.12	0.95	98.5944	0.5207	0.0000	0.0000;
	289	1	2.425	0.6	0	0	1	1.06178138	-14.4332921	110	1	1.12	0.95	95.5458	0.2128	0.0000	0.0000;
	290	1	16.008	6	0	0	1	1.04250324	-20.3372329	110	1	1.12	0.95	97.8159	0.5569	0.0000	0.0000;
	291	2	9.702	1	0	0	1	1.06439	-18.9742165	110	1	1.12	0.95	96.0463	0.0000	0.0000	0.0000;
	292	1	5.239	1.96	0	0	1	1.07433942	-10.4121869	110	1	1.12	0.95	92.2936	0.3814	0.0000	0.0000;
	293	1	1.94	1.3	0	0	1	1.04829284	-19.1255489	110	1	1.12	0.95	97.0862	0.0513	0.0000	0.0000;
	294	2	4.657	0.8	0	0	1	1.05278	-22.0794321	110	1	1.12	0.95	98.8780	0.0223	0.0000	0.0000;
	295	1	6.209	0.9	0	0	1	1.06077122	-14.1779895	110	1	1.12	0.95	95.3463	0.2188	0.0000	0.0000;
	296	1	3.881	2	0	0	1	1.06863168	-10.9878914	110	1	1.12	0.95	92.8062	-0.7699	0.0000	0.0000;
	297	1	7.276	2.97	0	0	1	1.05818708	-11.9272714	110	1	1.12	0.95	93.7143	0.2329	0.0000	0.0000;
	298	1	9.8	3.67	0	0	1	1.06266229	-11.9832884	110	1	1.12	0.95	93.7269	0.1723	0.0000	0.0000;
	299	2	9.702	3.5	0	0	1	1.08358	-19.6837725	110	1	1.12	0.95	95.9727	-1.9513	0.0000	0.0000;
	300	1	0	0	0	0	1	1.06955127	-11.1460681	110	1	1.12	0.95	92.6084	0.0524	0.0000	0.0000;
	301	1	3.881	0.5	0	0	1	1.02386447	-7.83176919	110	1	1.12	0.95	93.2805	0.4122	0.0000	0.0000;
	302	1	8.15	3.33	0	0	1	1.07437034	-10.4073828	110	1	1.12	0.95	92.2890	0.3813	0.0000	0.0000;
	303	1	9.605	3.59	0	0	1	1.06573564	-11.4047934	110	1	1.12	0.95	93.0323	0.0962	0.0000	0.0000;
	304	1	13.291	4.97	0	0	1	1.07216268	-10.5875843	110	1	1.12	0.95	92.4418	0.3139	0.0000	0.0000;
	305	1	14.844	5.55	0	0	1	1.05768441	-11.9152838	110	1	1.12	0.95	93.7212	0.2042	0.0000	0.0000;
	306	2	78.068	52.19	0	0	1	1.05332	-11.7572713	110	1	1.12	0.95	93.5638	0.3806	0.0000	0.0000;
	307	2	52.074	20.97	0	0	1	1.05854	-11.8230878	110	1	1.12	0.95	93.6380	0.1551	0.0000	0.0000;
	308	2	18.922	9.47	0	0	1	1.067	-11.3475128	110	1	1.12	0.95	93.0280	-0.0000	0.0000	0.0000;
	309	1	0	0	0	0	1	1.05800964	-11.9228972	110	1	1.12	0.95	93.7168	0.2218	0.0000	0.0000;
	310	2	36.737	19.74	0	0	1	1.07303	-10.5410025	110	1	1.12	0.95	92.3616	0.2446	0.0000	0.0000;
	311	2	29.633	16.42	0	0	1	1.06272	-11.1200679	110	1	1.12	0.95	92.6966	-0.0000	0.0000	0.0000;
	312	1	8.053	0.8	0	0	1	1.06123333	-13.2507184	110	1	1.12	0.95	94.6346	0.1839	0.0000	0.0000;
	313	1	1.94	0	0	0	1	1.08172477	-19.1651495	110	1	1.12	0.95	95.6571	-2.3571	0.0000	0.0000;
	314	1	0.97	0.501	0	0	1	1.03361575	-21.0003087	110	1	1.12	0.95	98.4975	0.5345	0.0000	0.0000;
	315	1	5.578	0.75	0	0	1	1.03248854	-21.4107996	110	1	1.12	0.95	98.8890	0.5320	0.0000	0.0000;
	316	1	8.489	1.25	0	0	1	1.03246245	-21.4004144	110	1	1.12	0.95	98.8863	0.5324	0.0000	0.0000;
	317	1	12.419	3	0	0	1	1.0454938	-19.3787734	110	1	1.12	0.95	96.6204	0.4890	0.0000	0.0000;
	318	1	6.694	2.5	0	0	1	1.07265672	-10.5496624	110	1	1.12	0.95	92.4086	0.3403	0.0000	0.0000;
	319	2	12.03	4.5	0	0	1	1.07001	-10.731924	110	1	1.12	0.95	92.5697	0.3046	0.0000	0.0000;
	320	1	10.672	2.5	0	0	1	1.0827488	-21.4568447	110	1	1.12	0.95	97.7216	-0.4276	0.0000	0.0000;
	321	1	11.642	4.75	0	0	1	1.06249977	-11.1615438	110	1	1.12	0.95	92.7345	0.0297	0.0000	0.0000;
	322	1	11.613	4.74	0	0	1	1.05205035	-11.8419771	110	1	1.12	0.95	93.6554	0.4174	0.0000	0.0000;
	323	1	4.977	2.03	0	0	1	1.0541604	-11.8374797	110	1	1.12	0.95	93.6381	0.3579	0.0000	0.0000;
	324	1	9.702	2.5	0	0	1	1.0821503	-21.1880194	110	1	1.12	0.95	97.4484	-0.4707	0.0000	0.0000;
	325	1	14.553	3	0	0	1	1.04727312	-22.2548887	110	1	1.12	0.95	99.5146	0.4418	0.0000	0.0000;
	326	1	8.926	3.34	0	0	1	1.05420529	-11.8396608	110	1	1.12	0.95	93.6399	0.3570	0.0000	0.0000;
	327	1	5.336	1	0	0	1	1.06348648	-11.4486144	110	1	1.12	0.95	93.1252	-0.1838	0.0000	0.0000;
	328	1	2.911	0.6	0	0	1	1.06335134	-11.4645083	110	1	1.12	0.95	93.1571	-0.2161	0.0000	0.0000;
	329	1	38.225	14.3	0	0	1	1.06798048	-10.9256648	110	1	1.12	0.95	92.7662	0.3788	0.0000	0.0000;
	330	1	11.643	1	0	0	1	1.07261494	-16.8035747	110	1	1.12	0.95	95.3538	-0.3071	0.0000	0.0000;
	331	1	0	0	0	0	1	1.05665277	-12.521686	110	1	1.12	0.95	94.3129	0.2796	0.0000	0.0000;
	332	1	6.791	2	0	0	1	1.04614127	-22.326553	110	1	1.12	0.95	99.6450	0.4780	0.0000	0.0000;
	333	1	3.881	0.2	0	0	1	1.08040146	-29.7012343	110	1	1.12	0.95	103.8920	1.2644	0.0000	0.0000;
	334	1	8.635	3.23	0	0	1	1.06623273	-11.3590369	110	1	1.12	0.95	92.9592	0.0992	0.0000	0.0000;