function mpc = case300_resqlim
%CASE300_RESQLIM

%% MATPOWER Case Format : Version 2
mpc.version = '2';

%%-----  Power Flow Data  -----%%
%% system MVA base
mpc.baseMVA = 100;

%% bus data
%    bus_i    type    Pd    Qd    Gs    Bs    area    Vm    Va    baseKV    zone    Vmax    Vmin
mpc.bus = [
    1    1    90    49    0    0    1    1.02821257    5.4807301    115    1    1.06    0.94;
    2    1    56    15    0    0    1    1.0350955    7.27295822    115    1    1.06    0.94;
    3    1    20    0    0    0    1    0.996603308    6.1715741    230    1    1.06    0.94;
    4    1    0    0    0    0    1    1.03004508    4.24178648    345    1    1.06    0.94;
    5    1    353    130    0    0    1    1.0188743    4.21437807    115    1    1.06    0.94;
    6    1    120    41    0    0    1    1.03091396    6.52319539    115    1    1.06    0.94;
    7    1    0    0    0    0    1    0.992995317    5.71927685    230    1    1.06    0.94;
    8    1    63    14    0    0    1    1.0148591    1.93574169    115    1    1.06    0.94;
    9    1    96    43    0    0    1    1.00318148    2.38252678    115    1    1.06    0.94;
    10    1    153    33    0    0    1    1.0202294    0.872306151    230    1    1.06    0.94;
    11    1    83    21    0    0    1    1.00548552    1.9922531    115    1    1.06    0.94;
    12    1    0    0    0    0    1    0.997065382    4.74082343    230    1    1.06    0.94;
    13    1    58    10    0    0    1    0.997431611    -1.02955929    115    1    1.06    0.94;
    14    1    160    60    0    0    1    0.998063296    -5.29323399    115    1    1.06    0.94;
    15    1    126.7    23    0    0    1    1.03271804    -9.08066776    115    1    1.06    0.94;
    16    1    0    0    0    0    1    1.02985594    -3.11559123    345    1    1.06    0.94;
    17    1    561    220    0    0    1    1.06360295    -13.6279821    115    1    1.06    0.94;
    19    1    0    0    0    0    1    0.981583678    0.588509615    230    1    1.06    0.94;
    20    1    605    120    0    0    1    1.00069656    -2.94284359    115    1    1.06    0.94;
    21    1    77    1    0    0    1    0.974880504    1.1390316    230    1    1.06    0.94;
    22    1    81    23    0    0    1    0.996016967    -2.45638792    115    1    1.06    0.94;
    23    1    21    7    0    0    1    1.05002919    3.45439642    115    1    1.06    0.94;
    24    1    0    0    0    0    1    1.00553686    5.53784376    230    1    1.06    0.94;
    25    1    45    12    0    0    1    1.02325855    0.955619019    115    1    1.06    0.94;
    26    1    28    9    0    0    1    0.998435806    -2.21830923    115    1    1.06    0.94;
    27    1    69    13    0    0    1    0.97482206    -5.38042987    115    1    1.06    0.94;
    33    1    55    6    0    0    1    1.01927223    -12.5293125    115    1    1.06    0.94;
    34    1    0    0    0    0    1    1.03833403    -8.40311681    345    1    1.06    0.94;
    35    1    0    0    0    0    1    0.974955753    -26.2781541    115    1    1.06    0.94;
    36    1    0    0    0    0    1    1.0001163    -23.1075151    230    1    1.06    0.94;
    37    1    85    32    0    0    1    1.01384029    -11.712044    115    1    1.06    0.94;
    38    1    155    18    0    0    1    1.01481339    -13.0670878    115    1    1.06    0.94;
    39    1    0    0    0    0    1    1.05125438    -6.2695914    345    1    1.06    0.94;
    40    1    46    -21    0    0    1    1.01635684    -13.2932657    115    1    1.06    0.94;
    41    1    86    0    0    0    1    1.02327786    -10.9357314    115    1    1.06    0.94;
    42    1    0    0    0    0    1    1.04211853    -7.90882098    345    1    1.06    0.94;
    43    1    39    9    0    0    1    0.996789974    -17.3289382    115    1    1.06    0.94;
    44    1    195    29    0    0    1    1.00601621    -18.0023431    115    1    1.06    0.94;
    45    1    0    0    0    0    1    1.01929758    -15.2427252    230    1    1.06    0.94;
    46    1    0    0    0    0    1    1.03206329    -12.2307097    345    1    1.06    0.94;
    47    1    58    11.8    0    0    1    0.975842779    -23.7549046    115    1    1.06    0.94;
    48    1    41    19    0    0    1    0.999103494    -16.6819097    115    1    1.06    0.94;
    49    1    92    26    0    0    1    1.02893539    -3.0619631    115    1    1.06    0.94;
    51    1    -5    5    0    0    1    1.01421532    -8.51461263    115    1    1.06    0.94;
    52    1    61    28    0    0    1    0.989807983    -12.3192419    115    1    1.06    0.94;
    53    1    69    3    0    0    1    0.992028363    -18.1491613    115    1    1.06    0.94;
    54    1    10    1    0    0    1    1.00109922    -16.7788338    115    1    1.06    0.94;
    55    1    22    10    0    0    1    1.00955728    -12.693337    115    1    1.06    0.94;
    57    1    98    20    0    0    1    1.03098856    -8.47513078    115    1    1.06    0.94;
    58    1    14    1    0    0    1    0.990610191    -6.49013547    115    1    1.06    0.94;
    59    1    218    106    0    0    1    0.978050138    -5.78699512    115    1    1.06    0.94;
    60    1    0    0    0    0    1    1.02282774    -10.0516634    230    1    1.06    0.94;
    61    1    227    110    0    0    1    0.990055014    -3.96531037    115    1    1.06    0.94;
    62    1    0    0    0    0    1    1.01497552    -1.58285164    230    1    1.06    0.94;
    63    1    70    30    0    0    1    0.956362237    -18.159914    115    1    1.06    0.94;
    64    1    0    0    0    0    1    0.946214395    -13.488346    230    1    1.06    0.94;
    69    1    0    0    0    0    1    0.962244871    -27.0680735    115    1    1.06    0.94;
    70    1    56    20    0    0    1    0.950271398    -35.7384635    115    1    1.06    0.94;
    71    1    116    38    0    0    1    0.978399078    -30.4483317    115    1    1.06    0.94;
    72    1    57    19    0    0    1    0.96886532    -28.0412156    115    1    1.06    0.94;
    73    1    224    71    0    0    1    0.976444802    -26.3307357    115    1    1.06    0.94;
    74    1    0    0    0    0    1    0.995041381    -22.5275528    230    1    1.06    0.94;
    76    1    208    107    0    0    1    0.962487223    -27.102153    115    1    1.06    0.94;
    77    1    74    28    0    0    1    0.98320415    -25.5085521    115    1    1.06    0.94;
    78    1    0    0    0    0    1    0.98948983    -24.6314101    115    1    1.06    0.94;
    79    1    48    14    0    0    1    0.981329674    -25.6077533    115    1    1.06    0.94;
    80    1    28    7    0    0    1    0.986786683    -25.4128044    115    1    1.06    0.94;
    81    1    0    0    0    0    1    1.0329574    -19.3325673    345    1    1.06    0.94;
    84    3    37    13    0    0    1    1.025    -17.7386447    115    1    1.06    0.94;
    85    1    0    0    0    0    1    0.986985311    -18.3454942    230    1    1.06    0.94;
    86    1    0    0    0    0    1    0.990651569    -14.8156637    230    1    1.06    0.94;
    87    1    0    0    0    0    1    0.991666082    -8.3321321    230    1    1.06    0.94;
    88    1    0    0    0    0    1    1.01403188    -21.4491595    230    1    1.06    0.94;
    89    1    44.2    0    0    0    1    1.02977159    -11.6876209    115    1    1.06    0.94;
    90    1    66    0    0    0    1    1.02389174    -11.7827418    115    1    1.06    0.94;
    91    2    17.4    0    0    0    1    1.052    -10.0100817    115    1    1.06    0.94;
    92    2    15.8    0    0    0    1    1.052    -6.81499223    115    1    1.06    0.94;
    94    1    60.3    0    0    0    1    0.99274718    -9.99520828    115    1    1.06    0.94;
    97    1    39.9    0    0    0    1    1.01812015    -13.8585214    115    1    1.06    0.94;
    98    2    66.7    0    0    0    1    1    -15.2381708    115    1    1.06    0.94;
    99    1    83.5    0    0    0    1    0.989297215    -20.9645205    115    1    1.06    0.94;
    100    1    0    0    0    0    1    1.00591838    -15.0753964    115    1    1.06    0.94;
    102    1    77.8    0    0    0    1    1.00062627    -15.8642452    115    1    1.06    0.94;
    103    1    32    0    0    0    1    1.02842817    -12.6896517    115    1    1.06    0.94;
    104    1    8.6    0    0    0    1    0.995671526    -17.9799016    115    1    1.06    0.94;
    105    1    49.6    0    0    0    1    1.02168111    -13.5729185    115    1    1.06    0.94;
    107    1    4.6    0    0    0    1    1.00794708    -16.6573676    115    1    1.06    0.94;
    108    2    112.1    0    0    0    1    0.99    -20.9542193    115    1    1.06    0.94;
    109    1    30.7    0    0    0    1    0.97457877    -26.8889032    115    1    1.06    0.94;
    110    1    63    0    0    0    1    0.97279059    -25.5241413    115    1    1.06    0.94;
    112    1    19.6    0    0    0    1    0.974025873    -29.8715613    115    1    1.06    0.94;
    113    1    26.2    0    0    0    1    0.968513822    -26.0459359    115    1    1.06    0.94;
    114    1    18.2    0    0    0    1    0.976364766    -29.8069333    115    1    1.06    0.94;
    115    1    0    0    0    0    1    0.960255201    -14.0466784    115    2    1.06    0.94;
    116    1    0    0    0    0    1    1.02485462    -13.1651229    115    2    1.06    0.94;
    117    1    0    0    0    325    1    0.934805737    -5.19692131    115    2    1.06    0.94;
    118    1    14.1    650    0    0    1    0.92983111    -4.59929616    115    2    1.06    0.94;
    119    2    0    0    0    0    1    1.0435    4.68969854    115    2    1.06    0.94;
    120    1    777    215    0    55    1    0.958432934    -9.24703181    115    2    1.06    0.94;
    121    1    535    55    0    0    1    0.987091355    -13.1129349    115    2    1.06    0.94;
    122    1    229.1    11.8    0    0    1    0.972763383    -14.8412774    115    2    1.06    0.94;
    123    1    78    1.4    0    0    1    1.00056464    -18.1118449    115    2    1.06    0.94;
    124    1    276.4    59.3    0    0    1    1.02329343    -13.9627263    115    2    1.06    0.94;
    125    1    514.8    82.7    0    0    1    1.01026211    -18.9050094    115    2    1.06    0.94;
    126    1    57.9    5.1    0    0    1    0.997723536    -13.3405579    115    2    1.06    0.94;
    127    1    380.8    37    0    0    1    1.00004059    -10.9992258    230    2    1.06    0.94;
    128    1    0    0    0    0    1    1.00227807    -5.2517151    230    2    1.06    0.94;
    129    1    0    0    0    0    1    1.00269406    -4.87285551    230    2    1.06    0.94;
    130    1    0    0    0    0    1    1.01886946    5.08928958    230    2    1.06    0.94;
    131    1    0    0    0    0    1    0.985773659    5.58641404    230    2    1.06    0.94;
    132    1    0    0    0    0    1    1.00427536    2.57386297    230    2    1.06    0.94;
    133    1    0    0    0    0    1    1.00189718    -5.93571368    230    2    1.06    0.94;
    134    1    0    0    0    0    1    1.02202555    -8.51978836    230    2    1.06    0.94;
    135    1    169.2    41.6    0    0    1    1.01929721    -7.23160517    230    2    1.06    0.94;
    136    1    55.2    18.2    0    0    1    1.0475696    1.06534805    230    2    1.06    0.94;
    137    1    273.6    99.8    0    0    1    1.04706851    -1.92955527    230    2    1.06    0.94;
    138    2    1019.2    135.2    0    0    1    1.055    -6.82893544    230    2    1.06    0.94;
    139    1    595    83.3    0    0    1    1.01170344    -4.04413126    115    2    1.06    0.94;
    140    1    387.7    114.7    0    0    1    1.04297925    -3.91134212    230    2    1.06    0.94;
    141    2    145    58    0    0    1    1.051    -0.426844579    230    2    1.06    0.94;
    142    1    56.5    24.5    0    0    1    1.01550954    -3.24622298    230    2    1.06    0.94;
    143    2    89.5    35.5    0    0    1    1.0435    3.55475177    230    2    1.06    0.94;
    144    1    0    0    0    0    1    1.01512588    -1.18131601    230    2    1.06    0.94;
    145    1    24    14    0    0    1    1.00810512    -0.634611556    230    2    1.06    0.94;
    146    1    0    0    0    0    1    1.05279902    3.84416293    230    2    1.06    0.94;
    147    2    0    0    0    0    1    1.0528    7.88666074    230    2    1.06    0.94;
    148    1    63    25    0    0    1    1.05771812    -0.200395789    230    2    1.06    0.94;
    149    2    0    0    0    0    1    1.0735    4.75123542    230    2    1.06    0.94;
    150    1    0    0    0    0    1    0.986510547    5.86822374    230    2    1.06    0.94;
    151    1    0    0    0    0    1    1.00454485    3.66114112    230    2    1.06    0.94;
    152    2    17    9    0    0    1    1.0535    8.76622681    230    2    1.06    0.94;
    153    2    0    0    0    0    1    1.0435    9.98585294    230    2    1.06    0.94;
    154    1    70    5    0    34.5    1    0.966402986    -2.27375856    115    2    1.06    0.94;
    155    1    200    50    0    0    1    1.01770735    6.27665827    230    2    1.06    0.94;
    156    1    75    50    0    0    1    0.962977318    4.6710591    115    2    1.06    0.94;
    157    1    123.5    -24.3    0    0    1    0.984433958    -12.4030842    230    2    1.06    0.94;
    158    1    0    0    0    0    1    0.998668234    -11.878718    230    2    1.06    0.94;
    159    1    33    16.5    0    0    1    0.98660927    -10.2962722    230    2    1.06    0.94;
    160    1    0    0    0    0    1    0.999778984    -13.0283995    230    2    1.06    0.94;
    161    1    35    15    0    0    1    1.03607633    8.36929034    230    2    1.06    0.94;
    162    1    85    24    0    0    1    0.991810348    18.0264726    230    2    1.06    0.94;
    163    1    0    0.4    0    0    1    1.04099213    2.43138717    230    2    1.06    0.94;
    164    1    0    0    0    -212    1    0.983899061    9.18683414    230    2    1.06    0.94;
    165    1    0    0    0    0    1    1.00020611    25.8346449    230    2    1.06    0.94;
    166    1    0    0    0    -103    1    0.99725143    29.7464355    230    2    1.06    0.94;
    167    1    299.9    95.7    0    0    1    0.971332168    -7.38132742    230    2    1.06    0.94;
    168    1    0    0    0    0    1    1.00230342    -5.27475502    230    2    1.06    0.94;
    169    1    0    0    0    0    1    0.987737392    -7.15300839    230    2    1.06    0.94;
    170    1    481.8    205    0    0    1    0.928676673    -0.384030023    115    2    1.06    0.94;
    171    1    763.6    291.1    0    0    1    0.982787041    -10.4115802    115    2    1.06    0.94;
    172    1    26.5    0    0    0    1    1.02446236    -6.70009068    115    2    1.06    0.94;
    173    1    163.5    43    0    53    1    0.983655519    -13.2311744    115    2    1.06    0.94;
    174    1    0    0    0    0    1    1.06221292    -3.16738919    115    2    1.06    0.94;
    175    1    176    83    0    0    1    0.973081304    -7.68454858    115    2    1.06    0.94;
    176    2    5    4    0    0    1    1.0522    4.18692766    115    2    1.06    0.94;
    177    2    28    12    0    0    1    1.0077    0.141019563    115    2    1.06    0.94;
    178    1    427.4    173.6    0    0    1    0.939795956    -7.04184361    115    2    1.06    0.94;
    179    1    74    29    0    45    1    0.969911947    -9.84276905    115    2    1.06    0.94;
    180    1    69.5    49.3    0    0    1    0.979329851    -3.56986059    115    2    1.06    0.94;
    181    1    73.4    0    0    0    1    1.05181117    -1.80133593    230    2    1.06    0.94;
    182    1    240.7    89    0    0    1    1.04461798    -4.66446629    230    2    1.06    0.94;
    183    1    40    4    0    0    1    0.97164252    6.64721938    115    2    1.06    0.94;
    184    1    136.8    16.6    0    0    1    1.03856957    -7.32214447    230    2    1.06    0.94;
    185    2    0    0    0    0    1    1.0522    -4.8078239    230    2    1.06    0.94;
    186    2    59.8    24.3    0    0    1    1.065    1.69625227    230    2    1.06    0.94;
    187    2    59.8    24.3    0    0    1    1.065    0.920878208    230    2    1.06    0.94;
    188    1    182.6    43.6    0    0    1    1.05327178    -1.19927671    230    2    1.06    0.94;
    189    1    7    2    0    0    1    1.00263875    -26.6100466    66    3    1.06    0.94;
    190    2    0    0    0    -150    1    1.0551    -21.0044753    345    3    1.06    0.94;
    191    2    489    53    0    0    1    1.0435    11.8644036    230    3    1.06    0.94;
    192    1    800    72    0    0    1    0.937452476    -11.5649703    230    3    1.06    0.94;
    193    1    0    0    0    0    1    0.998030735    -28.0679829    66    3    1.06    0.94;
    194    1    0    0    0    0    1    1.04836286    -19.6260059    345    3    1.06    0.94;
    195    1    0    0    0    0    1    1.0353886    -21.1656362    345    3    1.06    0.94;
    196    1    10    3    0    0    1    0.97384672    -24.8233677    115    3    1.06    0.94;
    197    1    43    14    0    0    1    0.992324406    -23.6558851    115    3    1.06    0.94;
    198    2    64    21    0    0    1    1.015    -20.6896465    115    3    1.06    0.94;
    199    1    35    12    0    0    1    0.954246885    -26.0411117    115    3    1.06    0.94;
    200    1    27    12    0    0    1    0.956118243    -25.9615205    115    3    1.06    0.94;
    201    1    41    14    0    0    1    0.973619833    -29.8302233    66    1    1.06    0.94;
    202    1    38    13    0    0    1    0.990620687    -25.5617318    66    3    1.06    0.94;
    203    1    42    14    0    0    1    1.00325021    -22.5191215    115    3    1.06    0.94;
    204    1    72    24    0    0    1    0.966439821    -30.1471594    66    3    1.06    0.94;
    205    1    0    -5    0    0    1    0.985310922    -29.1136802    66    3    1.06    0.94;
    206    1    12    2    0    0    1    1.00343473    -29.0697595    66    3    1.06    0.94;
    207    1    -21    -14.2    0    0    1    1.01816831    -28.8904527    66    1    1.06    0.94;
    208    1    7    2    0    0    1    0.999265241    -27.595256    66    3    1.06    0.94;
    209    1    38    13    0    0    1    1.00468634    -26.2111366    66    3    1.06    0.94;
    210    1    0    0    0    0    1    0.980391115    -24.1978202    115    3    1.06    0.94;
    211    1    96    7    0    0    1    1.00157087    -23.5631716    115    3    1.06    0.94;
    212    1    0    0    0    0    1    1.0129721    -22.7923678    138    3    1.06    0.94;
    213    2    0    0    0    0    1    1.01    -11.9687406    16.5    3    1.06    0.94;
    214    1    22    16    0    0    1    0.991839249    -17.8275245    138    3    1.06    0.94;
    215    1    47    26    0    0    1    0.986556195    -20.5403129    138    3    1.06    0.94;
    216    1    176    105    0    0    1    0.975032873    -22.8602942    138    3    1.06    0.94;
    217    1    100    75    0    0    1    1.02144748    -22.574175    138    3    1.06    0.94;
    218    1    131    96    0    0    1    1.00747668    -23.0090492    138    3    1.06    0.94;
    219    1    0    0    0    0    1    1.0553069    -21.534189    345    3    1.06    0.94;
    220    2    285    100    0    0    1    1.008    -22.1073589    138    3    1.06    0.94;
    221    2    171    70    0    0    1    1    -22.8727438    138    3    1.06    0.94;
    222    2    328    188    0    0    1    1.05    -23.5513631    20    3    1.06    0.94;
    223    1    428    232    0    0    1    0.99654998    -23.0831228    138    3    1.06    0.94;
    224    1    173    99    0    0    1    1.00023613    -21.9372804    230    3    1.06    0.94;
    225    1    410    40    0    0    1    0.945269207    -11.728948    230    3    1.06    0.94;
    226    1    0    0    0    0    1    1.01797955    -21.9929214    230    3    1.06    0.94;
    227    2    538    369    0    0    1    1    -27.6038739    27    3    1.06    0.94;
    228    1    223    148    0    0    1    1.04232662    -21.3244666    138    3    1.06    0.94;
    229    1    96    46    0    0    1    1.04953021    -20.3289643    138    3    1.06    0.94;
    230    2    0    0    0    0    1    1.04    -14.207433    20    3    1.06    0.94;
    231    1    159    107    0    -300    1    1.05349417    -21.6076971    345    3    1.06    0.94;
    232    1    448    143    0    0    1    1.04142507    -23.5818406    138    3    1.06    0.94;
    233    2    404    212    0    0    1    1    -26.2836415    66    3    1.06    0.94;
    234    1    572    244    0    0    1    1.03865605    -21.2780068    138    3    1.06    0.94;
    235    1    269    157    0    0    1    1.00951354    -21.4106476    138    3    1.06    0.94;
    236    1    0    0    0    0    1    1.01641999    -15.7818449    20    3    1.06    0.94;
    237    1    0    0    0    0    1    1.05578914    -21.4848048    345    3    1.06    0.94;
    238    2    255    149    0    -150    1    1.01    -21.3228888    138    3    1.06    0.94;
    239    2    0    0    0    0    1    1    -16.2440755    138    3    1.06    0.94;
    240    1    0    0    0    -140    1    1.02377627    -20.5217331    230    3    1.06    0.94;
    241    2    0    0    0    0    1    1.05    -16.8907913    20    3    1.06    0.94;
    242    2    0    0    0    0    1    0.993    -17.8161971    138    3    1.06    0.94;
    243    2    8    3    0    0    1    1.01    -19.5395453    66    3    1.06    0.94;
    244    1    0    0    0    0    1    0.992176643    -20.4781504    66    3    1.06    0.94;
    245    1    61    30    0    0    1    0.971137194    -21.1674378    66    3    1.06    0.94;
    246    1    77    33    0    0    1    0.965187451    -22.0064187    66    3    1.06    0.94;
    247    1    61    30    0    0    1    0.96908668    -21.9208986    66    3    1.06    0.94;
    248    1    29    14    0    45.6    1    0.976965647    -25.4015395    66    3    1.06    0.94;
    249    1    29    14    0    0    1    0.976192911    -25.8251344    66    3    1.06    0.94;
    250    1    -23    -17    0    0    1    1.02049983    -23.9706147    66    3    1.06    0.94;
    281    1    -33.1    -29.4    0    0    1    1.02512536    -20.4489228    230    3    1.06    0.94;
    319    1    115.8    -24    0    0    1    1.01508961    0.991486269    230    1    1.06    0.94;
    320    1    2.4    -12.6    0    0    1    1.01445024    -2.71881684    115    1    1.06    0.94;
    322    1    2.4    -3.9    0    0    1    1.00036782    -18.2688009    115    1    1.06    0.94;
    323    1    -14.9    26.5    0    0    1    0.980720818    -14.3157668    230    1    1.06    0.94;
    324    1    24.7    -1.2    0    0    1    0.974944922    -24.1125861    115    1    1.06    0.94;
    526    1    145.3    -34.9    0    0    1    0.940707316    -34.9226562    115    1    1.06    0.94;
    528    1    28.1    -20.5    0    0    1    0.971356457    -38.1624553    115    1    1.06    0.94;
    531    1    14    2.5    0    0    1    0.959713333    -29.6669544    115    1    1.06    0.94;
    552    1    -11.1    -1.4    0    0    1    1.00034247    -23.9259599    115    1    1.06    0.94;
    562    1    50.5    17.4    0    0    1    0.9761113    -28.5464436    230    1    1.06    0.94;
    609    1    29.6    0.6    0    0    1    0.957720754    -29.361801    115    1    1.06    0.94;
    664    1    -113.7    76.7    0    0    1    1.0303867    -17.4112283    345    3    1.06    0.94;
    1190    1    100.31    29.17    0    0    1    1.0128756    3.4271919    86    2    1.06    0.94;
    1200    1    -100    34.17    0    0    1    1.02443331    -8.00087005    86    2    1.06    0.94;
    1201    1    0    0    0    0    1    1.0122184    -15.6540615    115    2    1.06    0.94;
    2040    1    0    0    0    0    1    0.969328437    -25.2960065    115    3    1.06    0.94;
    7001    2    0    0    0    0    1    1.0507    10.3235392    13.8    1    1.06    0.94;
    7002    2    0    0    0    0    1    1.0507    12.0201071    13.8    1    1.06    0.94;
    7003    1    0    0    0    0    1    1.03181201    13.2959268    13.8    1    1.06    0.94;
    7011    2    0    0    0    0    1    1.0145    4.5205662    13.8    1    1.06    0.94;
    7012    2    0    0    0    0    1    1.0507    11.1016016    13.8    1    1.06    0.94;
    7017    1    0    0    0    0    1    1.04978451    -10.9886326    13.8    1    1.06    0.94;
    7023    2    0    0    0    0    1    1.0507    5.66468925    13.8    1    1.06    0.94;
    7024    2    0    0    0    0    1    1.029    12.113586    13.8    1    1.06    0.94;
    7039    2    0    0    0    0    1    1.05    1.66751826    20    1    1.06    0.94;
    7044    1    0    0    0    0    1    1.01273943    -14.4364301    13.8    1    1.06    0.94;
    7049    1    0    0    0    0    1    1.02867187    0    13.8    1    1.06    0.94;
    7055    1    0    0    0    0    1    0.991585008    -7.93082039    13.8    1    1.06    0.94;
    7057    1    0    0    0    0    1    1.01894055    -3.8989887    13.8    1    1.06    0.94;
    7061    2    0    0    0    0    1    1.0145    1.47345859    13.8    1    1.06    0.94;
    7062    1    0    0    0    0    1    1.00070927    5.32337406    13.8    1    1.06    0.94;
    7071    1    0    0    0    0    1    0.988436388    -25.9104599    13.8    1    1.06    0.94;
    7130    2    0    0    0    0    1    1.0507    18.5588332    13.8    2    1.06    0.94;
    7139    2    0    0    0    0    1    1.0507    2.26957649    13.8    2    1.06    0.94;
    7166    2    0    0    0    0    1    1.0145    34.5750883    13.8    2    1.06    0.94;
    9001    1    0    0    0    0    1    1.00553769    -11.732735    115    9    1.06    0.94;
    9002    1    4.2    0    0    0    1    0.98768497    -19.4415715    6.6    9    1.06    0.94;
    9003    1    2.71    0.94    0.14    2.4    1    0.975724909    -20.2837069    6.6    9    1.06    0.94;
    9004    1    0.86    0.28    0    0    1    0.969162724    -20.4228434    6.6    9    1.06    0.94;
    9005    1    0    0    0    0    1    1.00571278    -11.810201    115    9    1.06    0.94;
    9006    1    0    0    0    0    1    0.995617018    -17.9913461    6.6    9    1.06    0.94;
    9007    1    0    0    0    0    1    0.983911326    -19.2697309    6.6    9    1.06    0.94;
    9012    1    0    0    0    0    1    0.995538625    -17.8292816    6.6    9    1.06    0.94;
    9021    1    4.75    1.56    0    0    1    0.981865615    -19.6651941    6.6    9    1.06    0.94;
    9022    1    1.53    0.53    0.08    0    1    0.957845349    -22.2728036    0.6    9    1.06    0.94;
    9023    1    0    0    0    0    1    0.967749715    -19.97829    6.6    9    1.06    0.94;
    9024    1    1.35    0.47    0.07    0    1    0.963506787    -22.042227    0.6    9    1.06    0.94;
    9025    1    0.45    0.16    0.02    0    1    0.957729003    -21.0542704    0.6    9    1.06    0.94;
    9026    1    0.45    0.16    0.02    0    1    0.958585458    -20.9637502    0.6    9    1.06    0.94;
    9031    1    1.84    0.64    0.1    0    1    0.923625014    -25.7114748    0.6    9    1.06    0.94;
    9032    1    1.39    0.48    0.07    0    1    0.936099403    -24.5027794    0.6    9    1.06    0.94;
    9033    1    1.89    0.65    0.1    0    1    0.920644846    -26.0322888    0.6    9    1.06    0.94;
    9034    1    1.55    0.54    0.08    1.72    1    0.989359991    -21.7166532    0.6    9    1.06    0.94;
    9035    1    1.66    0.58    0.09    0    1    0.942516515    -23.8368274    0.6    9    1.06    0.94;
    9036    1    3.03    1    0    0    1    0.951872671    -23.3169683    2.3    9    1.06    0.94;
    9037    1    1.86    0.64    0.1    0    1    0.949186804    -23.2345697    0.6    9    1.06    0.94;
    9038    1    2.58    0.89    0.14    0    1    0.931127714    -25.0960154    0.6    9    1.06    0.94;
    9041    1    1.01    0.35    0.05    0    1    0.955781866    -21.9474692    0.6    9    1.06    0.94;
    9042    1    0.81    0.28    0.04    0    1    0.942372493    -23.1305357    0.6    9    1.06    0.94;
    9043    1    1.6    0.52    0    0    1    0.956915861    -22.0525612    2.3    9    1.06    0.94;
    9044    1    0    0    0    0    1    0.971362145    -20.3821762    6.6    9    1.06    0.94;
    9051    2    35.81    0    0    0    1    1    -19.9467779    13.8    9    1.06    0.94;
    9052    1    30    23    0    0    1    0.971430116    -17.814845    13.8    9    1.06    0.94;
    9053    2    26.48    0    0    0    1    1    -18.2232947    13.8    9    1.06    0.94;
    9054    2    0    0    0    0    1    1    -7.28741723    13.8    9    1.06    0.94;
    9055    2    0    0    0    0    1    1    -8.00269337    13.8    9    1.06    0.94;
    9071    1    1.02    0.35    0.05    0    1    0.967827131    -21.0815032    0.6    9    1.06    0.94;
    9072    1    1.02    0.35    0.05    0    1    0.972899187    -20.5194295    0.6    9    1.06    0.94;
    9121    1    3.8    1.25    0    0    1    0.972978383    -19.8816462    6.6    9    1.06    0.94;
    9533    1    1.19    0.41    0.1    0    1    1.04051734    -18.737109    2.3    9    1.06    0.94;
];

%% generator data
%    bus    Pg    Qg    Qmax    Qmin    Vg    mBase    status    Pmax    Pmin    Pc1    Pc2    Qc1min    Qc1max    Qc2min    Qc2max    ramp_agc    ramp_10    ramp_30    ramp_q    apf
mpc.gen = [
    8    1.13288528    10    10    -10    1.0153    100    1    100    0    0    0    0    0    0    0    0    0    0    0    0;