function mpc = case2746wp_resqlim
%CASE2746WP_RESQLIM

%% MATPOWER Case Format : Version 2
mpc.version = '2';

%%-----  Power Flow Data  -----%%
%% system MVA base
mpc.baseMVA = 100;

%% bus data
%	bus_i	type	Pd	Qd	Gs	Bs	area	Vm	Va	baseKV	zone	Vmax	Vmin	lam_P	lam_Q	mu_Vmax	mu_Vmin
mpc.bus = [
	1	1	0	0	0	0	1	1.08039471	-0.645434621	220	1	1.11	0.95	98.3658	0.1938	0.0000	0.0000;
	2	1	0	0	0	0	1	1.08109926	1.26029015	220	1	1.11	0.95	97.9988	0.1556	0.0000	0.0000;
	3	1	0	0	0	0	1	1.04861198	-27.5528568	220	1	1.11	0.95	113.5931	0.8243	0.0000	0.0000;
	4	1	0	0	0	0	1	1.05895454	-6.30692763	220	1	1.11	0.95	101.3462	0.7470	0.0000	0.0000;
	5	1	0	0	0	0	1	1.05900384	-6.3094545	220	1	1.11	0.95	101.3481	0.7457	0.0000	0.0000;
	6	1	0	0	0	0	1	1.03581162	-18.4562963	220	1	1.11	0.95	106.5828	1.2223	0.0000	0.0000;
	7	1	0	0	0	0	1	1.03598816	-18.4479356	220	1	1.11	0.95	106.5743	1.2187	0.0000	0.0000;
	8	1	0	0	0	0	1	1.00972457	-13.975267	400	1	1.05	0.95	105.2553	0.6873	0.0000	0.0000;
	9	1	0	0	0	0	1	1.00975257	-13.9706254	400	1	1.05	0.95	105.2527	0.6857	0.0000	0.0000;
	10	1	0	0	0	0	1	1.01401611	-18.4364121	220	1	1.11	0.95	107.7378	1.8165	0.0000	0.0000;
	11	1	0	0	0	0	1	1.01390662	-18.4211445	220	1	1.11	0.95	107.7369	1.8191	0.0000	0.0000;
	12	1	0	0	0	0	1	1.01395498	-18.4113807	220	1	1.11	0.95	107.7347	1.8184	0.0000	0.0000;
	13	1	0	0	0	0	1	1.00753541	-12.1283152	400	1	1.05	0.95	104.4075	1.0389	0.0000	0.0000;
	14	1	0	0	0	0	1	1.00759122	-12.1178343	400	1	1.05	0.95	104.4018	1.0365	0.0000	0.0000;
	15	1	0	0	0	0	1	1.0079496	-17.2025088	400	1	1.05	0.95	106.1196	0.0526	0.0000	0.0000;
	16	1	0	0	0	0	1	1.0079496	-17.2025088	400	1	1.05	0.95	106.1196	0.0526	0.0000	0.0000;
	17	1	11	40	0	0	1	1.0908636	-22.3709125	220	1	1.11	0.95	109.5314	0.0007	0.0000	0.0000;
	18	2	14	40	0	0	1	1.09091	-22.3693278	220	1	1.11	0.95	109.5301	0.0000	0.0000	0.0203;
	19	1	0	0	0	0	1	1.06516038	-5.11166478	220	1	1.11	0.95	100.6721	0.6066	0.0000	0.0000;
	20	1	0	0	0	0	1	1.06519907	-5.11048901	220	1	1.11	0.95	100.6736	0.6058	0.0000	0.0000;
	21	1	0	0	0	0	1	1.03502703	-20.0147049	220	1	1.11	0.95	108.3430	1.3062	0.0000	0.0000;
	22	1	0	0	0	0	1	1.03495274	-20.0166145	220	1	1.11	0.95	108.3441	1.3075	0.0000	0.0000;
	23	1	0	0	0	0	1	1.01700838	-18.2918526	220	1	1.11	0.95	107.6600	1.7291	0.0000	0.0000;
	24	1	0	0	0	0	1	1.06875068	-2.90459646	220	1	1.11	0.95	99.8073	0.5296	0.0000	0.0000;
	25	1	0	0	0	0	1	1.00220695	-14.4736971	400	1	1.05	0.95	105.4805	0.4745	0.0000	0.0000;
	26	2	46.738	72.054	0	0	1	1.09091	-0.271456899	220	1	1.11	0.95	98.1840	0.0000	1871.2524	0.0000;
	27	2	85.493	122.06	0	0	1	1.09091	1.51822236	220	1	1.11	0.95	97.8808	0.0000	2497.9903	0.0000;
	28	3	60	110	0	0	1	1.0325	0	400	1	1.05	0.95	98.8168	-0.1638	0.0000	0.0000;
	29	2	60.097	90	0	0	1	1.0325	0.00596430093	400	1	1.05	0.95	98.8125	-0.1626	0.0000	0.0000;
	30	1	0	0	0	0	1	1.02226115	-19.2760649	220	1	1.11	0.95	108.2832	1.5095	0.0000	0.0000;
	31	1	0	0	0	0	1	1.03141508	-1.48566407	400	1	1.05	0.95	98.9272	-0.4853	0.0000	0.0000;
	32	1	0	0	0	0	1	1.01135843	-18.7956864	220	1	1.11	0.95	107.9744	1.8681	0.0000	0.0000;
	33	1	0	0	0	0	1	1.06875733	-2.90347205	220	1	1.11	0.95	99.8069	0.5295	0.0000	0.0000;
	34	1	0	0	0	0	1	1.06512322	-9.89177928	220	1	1.11	0.95	103.0266	0.5256	0.0000	0.0000;
	35	1	0	0	0	0	1	1.07462577	-13.6727612	220	2	1.11	0.95	104.6817	0.0239	0.0000	0.0000;
	36	1	0	0	0	0	1	1.07853736	-13.3264719	220	2	1.11	0.95	104.6851	-0.0233	0.0000	0.0000;
	37	1	0	0	0	0	1	1.0848321	-11.5557478	220	2	1.11	0.95	103.5611	-0.0732	0.0000	0.0000;
	38	1	0	0	0	0	1	1.0848184	-11.5601595	220	2	1.11	0.95	103.5634	-0.0730	0.0000	0.0000;
	39	1	0	0	0	0	1	1.06281268	-16.6269367	220	2	1.11	0.95	106.6792	-0.1631	0.0000	0.0000;
	40	1	0	0	0	0	1	1.08814908	-9.74970792	220	2	1.11	0.95	102.8022	-0.2150	0.0000	0.0000;
	41	1	0	0	0	0	1	1.08811041	-9.74790139	220	2	1.11	0.95	102.8019	-0.2146	0.0000	0.0000;
	42	1	0	0	0	0	1	1.02975948	-10.1119877	400	2	1.05	0.95	102.8310	-0.3182	0.0000	0.0000;
	43	2	11.436	0	0	0	1	1.09091	-10.1881062	220	2	1.11	0.95	102.8898	0.0019	0.0000	0.0000;
	44	2	24	0	0	0	1	1.09096	-10.1598126	220	2	1.11	0.95	102.8801	0.0000	1267.4360	0.0000;
	45	2	20	0	0	0	1	1.0325	-10.9588128	400	2	1.05	0.95	103.5574	0.0000	0.0000	0.0000;
	46	1	0	0	0	0	1	1.03252401	-10.9605401	400	2	1.05	0.95	103.5562	-0.0017	0.0000	0.0000;
	47	1	0	0	0	0	1	1.08417813	-10.3591786	220	2	1.11	0.95	103.2216	-0.1332	0.0000	0.0000;
	48	1	0	0	0	0	1	1.02053691	-16.0241943	400	2	1.05	0.95	104.6752	-0.3477	0.0000	0.0000;
	49	1	0	0	0	0	1	1.02050359	-16.0334444	400	2	1.05	0.95	104.6797	-0.3469	0.0000	0.0000;
	50	1	0	0	0	0	1	1.03421206	-12.1461908	400	2	1.05	0.95	103.9640	-0.4380	2649.8675	0.0000;
	51	1	0	0	0	0	1	1.07015644	-15.4336302	220	2	1.11	0.95	106.0233	-0.1063	0.0000	0.0000;
	52	1	0	0	0	0	1	1.07014538	-15.4333032	220	2	1.11	0.95	106.0243	-0.1064	0.0000	0.0000;
	53	1	0	0	0	0	1	1.02992464	-11.6058622	400	2	1.05	0.95	103.5431	-0.2198	0.0000	0.0000;
	54	1	0	0	0	0	1	1.02993189	-11.6042423	400	2	1.05	0.95	103.5419	-0.2206	0.0000	0.0000;
	55	2	12	0	0	0	1	1.09121	-9.82665297	220	2	1.11	0.95	102.6793	-0.1306	0.0000	0.0000;
	56	2	11.436	0	0	0	1	1.09115	-9.82374301	220	2	1.11	0.95	102.6756	-0.1282	0.0000	0.0000;
	57	2	12	0	0	0	1	1.03336	-10.5650044	400	2	1.05	0.95	102.9624	-0.4555	0.0000	0.0000;
	58	2	11.436	0	0	0	1	1.03337	-10.570001	400	2	1.05	0.95	102.9649	-0.4554	0.0000	0.0000;
	59	1	167.518	60	0	0	1	1.08350267	-11.732555	220	2	1.11	0.95	103.6382	0.0447	0.0000	0.0000;
	60	1	0	0	0	0	1	1.08351991	-11.7326915	220	2	1.11	0.95	103.6376	0.0440	0.0000	0.0000;
	61	1	0	0	0	0	1	1.08523184	-10.5320225	220	2	1.11	0.95	103.1603	-0.1600	0.0000	0.0000;
	62	1	0	0	0	0	1	1.08437622	-11.4573206	220	2	1.11	0.95	103.6562	0.0311	0.0000	0.0000;
	63	1	0	0	0	0	1	1.08437048	-11.4606501	220	2	1.11	0.95	103.6568	0.0317	0.0000	0.0000;
	64	1	0	0	0	0	1	1.03326081	-12.1831164	400	2	1.05	0.95	103.3469	-0.6450	0.0000	0.0000;
	65	1	0	0	0	0	1	1.03323846	-12.1954733	400	2	1.05	0.95	103.3508	-0.6455	0.0000	0.0000;
	66	1	0	0	0	0	1	1.07723017	-13.2010994	220	2	1.11	0.95	104.3236	-0.0107	0.0000	0.0000;
	67	1	0	0	0	0	1	1.07906583	-12.9425843	220	2	1.11	0.95	104.1800	-0.0365	0.0000	0.0000;
	68	1	0	0	0	0	1	1.07105434	-14.915863	220	2	1.11	0.95	105.8181	-0.0576	0.0000	0.0000;
	69	1	0	0	0	0	1	1.0839959	-4.64524378	220	3	1.11	0.95	100.1491	-0.1679	0.0000	0.0000;
	70	1	7.123	0	0	0	1	1.08243213	-10.0890499	220	3	1.11	0.95	103.0168	0.0335	0.0000	0.0000;
	71	1	8.31	0.933	0	0	1	1.08240683	-10.0918817	220	3	1.11	0.95	103.0192	0.0343	0.0000	0.0000;
	72	1	0	0	0	0	1	1.08491758	-4.48057146	220	3	1.11	0.95	99.8543	0.0998	0.0000	0.0000;
	73	1	0	0	0	0	1	1.08499735	-4.47135552	220	3	1.11	0.95	99.8509	0.0987	0.0000	0.0000;
	74	1	0	0	0	0	1	1.0829127	-4.93585718	220	3	1.11	0.95	100.0408	0.1135	0.0000	0.0000;
	75	1	0	0	0	0	1	1.0828688	-4.94006461	220	3	1.11	0.95	100.0426	0.1140	0.0000	0.0000;
	76	1	0	0	0	0	1	1.08890916	-3.53272887	220	3	1.11	0.95	99.5287	0.0371	0.0000	0.0000;
	77	1	0	0	0	0	1	1.08885879	-3.54092915	220	3	1.11	0.95	99.5330	0.0382	0.0000	0.0000;
	78	2	27	70	0	0	1	1.09091	-3.85980102	220	3	1.11	0.95	99.5068	0.0000	748.3478	0.0000;
	79	1	9	21	0	0	1	1.09034298	-4.04227797	220	3	1.11	0.95	99.6306	0.0011	0.0000	0.0000;
	80	1	10.328	2.61	0	0	1	1.07754058	-5.30942359	220	3	1.11	0.95	100.4225	0.2765	0.0000	0.0000;
	81	1	0	0	0	0	1	1.07755353	-5.30805201	220	3	1.11	0.95	100.4220	0.2763	0.0000	0.0000;
	82	2	35	108	0	0	1	1.02993	-3.78373396	400	3	1.05	0.95	99.2008	0.0000	0.0000	0.0000;
	83	1	0	0	0	0	1	1.07823685	-6.71462116	220	3	1.11	0.95	100.5192	0.3124	0.0000	0.0000;
	84	1	0	0	0	0	1	1.08667001	-4.05333437	220	3	1.11	0.95	99.4386	0.0554	0.0000	0.0000;
	85	1	0	0	0	0	1	1.0866611	-4.05537168	220	3	1.11	0.95	99.4405	0.0558	0.0000	0.0000;
	86	1	37.893	12.351	0	0	1	1.0851384	-4.51380005	220	3	1.11	0.95	99.9812	-0.1367	0.0000	0.0000;
	87	1	0	0	0	0	1	1.08511184	-4.51998173	220	3	1.11	0.95	99.9832	-0.1370	0.0000	0.0000;
	88	1	0	0	0	0	1	1.08711915	-4.0296833	220	3	1.11	0.95	99.3740	0.0877	0.0000	0.0000;
	89	1	0	0	0	0	1	1.08709434	-4.03106366	220	3	1.11	0.95	99.3753	0.0883	0.0000	0.0000;
	90	1	0	0	0	0	1	1.08813647	-4.05401487	220	3	1.11	0.95	99.7690	-0.1565	0.0000	0.0000;
	91	1	0	0	0	0	1	1.08811171	-4.05976642	220	3	1.11	0.95	99.7716	-0.1564	0.0000	0.0000;
	92	1	0	0	0	0	1	1.03121677	-2.36366266	400	3	1.05	0.95	99.4873	-0.2606	0.0000	0.0000;
	93	1	0	0	0	0	1	1.03122227	-2.36559704	400	3	1.05	0.95	99.4875	-0.2610	0.0000	0.0000;
	94	1	0	0	0	0	1	1.089404	-3.77523998	220	3	1.11	0.95	99.0458	0.0213	0.0000	0.0000;
	95	1	0	0	0	0	1	1.08940502	-3.77415004	220	3	1.11	0.95	99.0452	0.0211	0.0000	0.0000;
	96	1	0	0	0	0	1	1.08207999	-5.75667652	220	3	1.11	0.95	100.2120	0.1872	0.0000	0.0000;
	97	1	0	0	0	0	1	1.08207078	-5.76146903	220	3	1.11	0.95	100.2128	0.1879	0.0000	0.0000;
	98	1	16.027	7.274	0	0	1	1.08796705	-4.84514135	220	3	1.11	0.95	100.0477	-0.0303	0.0000	0.0000;
	99	1	7.764	0.258	0	0	1	1.0879652	-4.8504076	220	3	1.11	0.95	100.0498	-0.0308	0.0000	0.0000;
	100	1	0	0	0	0	1	1.08249004	-10.0722626	220	3	1.11	0.95	103.0080	0.0336	0.0000	0.0000;
	101	1	0	0	0	0	1	1.08246472	-10.0719032	220	3	1.11	0.95	103.0072	0.0341	0.0000	0.0000;
	102	1	0	0	0	0	1	1.08211784	-4.62857153	220	3	1.11	0.95	100.1615	0.1646	0.0000	0.0000;
	103	1	0	0	0	0	1	1.08203358	-4.63895813	220	3	1.11	0.95	100.1660	0.1662	0.0000	0.0000;
	104	2	14	40	0	0	1	1.09091	-3.48254241	220	3	1.11	0.95	99.0705	0.0000	851.4354	0.0000;
	105	2	14	40	0	0	1	1.09091	-3.48293596	220	3	1.11	0.95	99.0679	0.0010	0.0000	0.0000;
	106	2	7	18	0	0	1	1.09091	-3.72055708	220	3	1.11	0.95	99.1312	-0.0000	0.0000	0.0000;
	107	2	8	15	0	0	1	1.09091	-3.72046743	220	3	1.11	0.95	99.1331	0.0009	0.0000	0.0000;
	108	1	1.044	0	0	0	1	1.08721245	-5.35033992	220	3	1.11	0.95	100.3152	-0.0853	0.0000	0.0000;
	109	1	1.259	0	0	0	1	1.08724309	-5.35708394	220	3	1.11	0.95	100.3166	-0.0846	0.0000	0.0000;
	110	1	0	0	0	0	1	1.08447151	-6.61255948	220	3	1.11	0.95	101.1866	0.0199	0.0000	0.0000;
	111	1	0	0	0	0	1	1.0747975	-5.35933377	220	3	1.11	0.95	100.4766	0.3798	0.0000	0.0000;
	112	1	0	0	0	0	1	1.07481766	-5.35906561	220	3	1.11	0.95	100.4764	0.3794	0.0000	0.0000;
	113	1	0	0	0	0	1	1.07835455	-5.21168231	220	3	1.11	0.95	100.3684	0.2578	0.0000	0.0000;
	114	1	0	0	0	0	1	1.07843742	-5.20138683	220	3	1.11	0.95	100.3643	0.2564	0.0000	0.0000;
	115	1	0	0	0	0	1	1.03118978	-6.18276897	400	3	1.05	0.95	100.4302	-1.3328	0.0000	0.0000;
	116	2	0	0	0	0	1	1.09041371	-4.55176767	220	3	1.11	0.95	99.8878	0.0005	0.0000	0.0000;
	117	2	8	15	0	0	1	1.09046	-4.54478605	220	3	1.11	0.95	99.8858	0.0000	0.0000	0.0000;
	118	2	5.5	10	0	0	1	1.089	-5.91775688	220	3	1.11	0.95	100.8745	-0.0648	0.0000	0.0000;
	119	1	0	0	0	0	1	1.08894979	-5.93006373	220	3	1.11	0.95	100.8794	-0.0642	0.0000	0.0000;
	120	1	0	0	0	0	1	1.03520904	-10.7559852	400	3	1.05	0.95	102.8601	-0.8607	0.0000	0.0000;
	121	1	0	0	0	0	1	1.03525106	-10.7479251	400	3	1.05	0.95	102.8559	-0.8627	0.0000	0.0000;
	122	1	0	0	0	0	1	1.03714154	-6.38519723	400	3	1.05	0.95	100.5772	-2.3753	0.0000	0.0000;
	123	1	0	0	0	0	1	1.03714902	-6.37966902	400	3	1.05	0.95	100.5753	-2.3844	29819.5951	0.0000;
	124	1	0	0	0	0	1	1.08450898	-6.72248756	220	3	1.11	0.95	101.3365	-0.0037	0.0000	0.0000;
	125	2	18.343	21.865	0	0	1	1.09091	-4.11229266	220	3	1.11	0.95	99.5430	0.0000	0.0000	0.0000;
	126	2	28.469	34.292	0	0	1	1.09082	-4.11379166	220	3	1.11	0.95	99.5460	0.0025	0.0000	0.0000;
	127	2	28	66	0	0	1	1.02869	-5.31237088	400	3	1.05	0.95	100.0312	-0.6133	0.0000	0.0000;
	128	1	0	0	0	0	1	1.02870831	-5.31497735	400	3	1.05	0.95	100.0321	-0.6163	0.0000	0.0000;
	129	1	0	0	0	0	1	1.0844784	-4.64213753	220	3	1.11	0.95	100.0378	-0.1398	0.0000	0.0000;
	130	1	0	0	0	0	1	1.08451563	-4.63837104	220	3	1.11	0.95	100.0349	-0.1397	0.0000	0.0000;
	131	1	0	0	0	0	1	1.08656603	-4.31912007	220	3	1.11	0.95	99.8703	-0.1381	0.0000	0.0000;
	132	2	3	18	0	0	1	1.09091	-2.79055223	220	3	1.11	0.95	99.1843	0.0000	860.4661	0.0000;
	133	2	2	6	0	0	1	1.09091	-3.17748768	220	3	1.11	0.95	99.3612	0.0000	428.7704	0.0000;
	134	1	15.447	12.88	0	0	1	1.08766276	-11.2055558	220	4	1.11	0.95	103.4466	0.0000	532.4155	0.0000;
	135	2	5.255	-0.357	0	0	1	1.08751368	-11.2153796	220	4	1.11	0.95	103.4495	0.0024	0.0000	0.0000;
	136	1	0	0	0	0	1	1.05402154	-13.5269229	220	4	1.11	0.95	102.4302	0.8590	0.0000	0.0000;
	137	1	0	0	0	0	1	1.0624846	-11.6377838	220	4	1.11	0.95	101.2356	0.6887	0.0000	0.0000;
	138	1	0	0	0	0	1	0.993960715	-10.2797791	400	4	1.05	0.95	101.1353	0.6360	0.0000	0.0000;
	139	1	0	0	0	0	1	0.993979284	-10.2812027	400	4	1.05	0.95	101.1362	0.6358	0.0000	0.0000;
	140	1	0	0	0	0	1	1.07016953	-22.465574	220	4	1.11	0.95	110.4019	0.4199	0.0000	0.0000;
	141	1	0	0	0	0	1	1.07246758	-29.0609428	220	4	1.11	0.95	114.1140	0.4044	0.0000	0.0000;
	142	1	0	0	0	0	1	1.07246758	-29.0609428	220	4	1.11	0.95	114.1140	0.4044	0.0000	0.0000;
	143	1	0	0	0	0	1	1.07480092	-25.9155036	220	4	1.11	0.95	111.2129	0.8957	0.0000	0.0000;
	144	1	0	0	0	0	1	1.06480317	-14.0196301	220	4	1.11	0.95	101.8406	0.4787	0.0000	0.0000;
	145	1	0	0	0	0	1	1.06480317	-14.0196301	220	4	1.11	0.95	101.8406	0.4787	0.0000	0.0000;
	146	1	10.954	-0.465	0	0	1	1.0898617	-14.1609615	220	4	1.11	0.95	104.8461	0.0247	0.0000	0.0000;
	147	2	10.812	-0.465	0	0	1	1.08984072	-14.1720239	220	4	1.11	0.95	104.8485	0.0260	0.0000	0.0000;
	148	2	11.5	6.86	0	0	1	1.09091	-26.8108754	220	4	1.11	0.95	112.2754	0.0000	1722.1892	0.0000;
	149	1	1.634	3.038	0	0	1	1.09097683	-26.8059962	220	4	1.11	0.95	112.2713	0.0006	0.0000	0.0000;
	150	2	8.087	-0.38	0	0	1	1.03246	-23.2948171	400	4	1.05	0.95	111.2998	-0.2377	0.0000	0.0000;
	151	2	16.174	-0.76	0	0	1	1.0325	-23.2906275	400	4	1.05	0.95	111.2966	-0.2386	0.0000	0.0000;
	152	1	0	0	0	0	1	1.03345877	-22.6083671	220	4	1.11	0.95	111.0636	1.8396	0.0000	0.0000;
	153	1	0	0	0	0	1	1.05037692	-21.1523039	220	4	1.11	0.95	108.1496	1.8476	0.0000	0.0000;
	154	1	0	0	0	0	1	1.05046554	-21.1456767	220	4	1.11	0.95	108.1448	1.8458	0.0000	0.0000;
	155	2	30.555	-3.555	0	0	1	1.09091	-7.32399895	220	4	1.11	0.95	98.9764	0.0000	6606.4137	0.0000;
	156	2	14.679	-3.566	0	0	1	1.09091	-8.4702064	220	4	1.11	0.95	99.5878	0.0000	8240.7403	0.0000;
	157	1	0	0	0	0	1	1.09091	-7.32399895	220	4	1.11	0.95	98.9764	0.0000	0.0000	0.0000;
	158	1	0	0	0	0	1	1.00532826	-6.90220835	400	4	1.05	0.95	99.4370	0.1499	0.0000	0.0000;
	159	2	7.385	-1.783	0	0	1	1.00535	-6.89640553	400	4	1.05	0.95	99.4353	0.1487	0.0000	0.0000;
	160	1	0	0	0	0	1	1.07060636	-29.2780287	220	4	1.11	0.95	114.3792	0.4216	0.0000	0.0000;
	161	1	0	0	0	0	1	1.07060636	-29.2780287	220	4	1.11	0.95	114.3792	0.4216	0.0000	0.0000;
	162	1	0	0	0	0	1	0.992858912	-11.2774376	400	4	1.05	0.95	101.7681	0.8220	0.0000	0.0000;
	163	1	0	0	0	0	1	1.00110582	-9.6653245	400	4	1.05	0.95	101.0197	0.5666	0.0000	0.0000;
	164	1	0	0	0	0	1	1.00109425	-9.66762118	400	4	1.05	0.95	101.0201	0.5666	0.0000	0.0000;
	165	2	4.293	-8.964	0	0	1	1.09084	-14.2674348	220	4	1.11	0.95	104.8666	0.0000	2151.3956	0.0000;
	166	2	23.077	7.176	0	0	1	1.09091	-14.2871102	220	4	1.11	0.95	104.8772	0.0020	0.0000	0.0000;
	167	1	0	0	0	0	1	1.09084	-14.2674348	220	4	1.11	0.95	104.8666	0.0000	0.0000	0.0000;
	168	1	0	0	0	0	1	1.0651132	-27.5513243	220	4	1.11	0.95	113.8019	0.1600	0.0000	0.0000;
	169	1	0	0	0	0	1	1.07157345	-29.1772272	220	4	1.11	0.95	114.2024	0.4189	0.0000	0.0000;
	170	1	0	0	0	0	1	1.0645165	-23.4679399	220	4	1.11	0.95	111.1430	0.5568	0.0000	0.0000;
	171	1	0	0	0	0	1	1.06442311	-23.4610991	220	4	1.11	0.95	111.1408	0.5584	0.0000	0.0000;
	172	1	0	0	0	0	1	0.988850681	-24.5638797	400	4	1.05	0.95	111.4856	0.4789	0.0000	0.0000;
	173	1	0	0	0	0	1	0.988850681	-24.5638797	400	4	1.05	0.95	111.4856	0.4789	0.0000	0.0000;
	174	1	0	0	0	0	1	1.02335882	-18.6743175	220	4	1.11	0.95	107.7998	2.5845	0.0000	0.0000;
	175	1	0	0	0	0	1	1.02337416	-18.6671061	220	4	1.11	0.95	107.7990	2.5843	0.0000	0.0000;
	176	1	0	0	0	0	1	1.06234728	-24.0172665	220	4	1.11	0.95	111.4317	0.5802	0.0000	0.0000;
	177	1	0	0	0	0	1	1.05987372	-13.0057158	220	4	1.11	0.95	102.1816	0.7107	0.0000	0.0000;
	178	1	0	0	0	0	1	1.05991705	-12.9992221	220	4	1.11	0.95	102.1813	0.7101	0.0000	0.0000;
	179	1	0	0	0	0	1	1.06125801	-12.4489068	220	4	1.11	0.95	102.2825	0.6845	0.0000	0.0000;
	180	1	0	0	0	0	1	1.06125801	-12.4489068	220	4	1.11	0.95	102.2825	0.6845	0.0000	0.0000;
	181	1	0	0	0	0	1	1.01986744	-20.2752624	220	4	1.11	0.95	108.4654	2.6634	0.0000	0.0000;
	182	1	0	0	0	0	1	1.03994499	-22.7753662	220	5	1.11	0.95	109.5467	-0.0766	0.0000	0.0000;
	183	1	0	0	0	0	1	1.11212081	-24.5772316	220	5	1.11	0.95	110.9010	-1.5077	3341.3081	0.0000;
	184	1	0	0	0	0	1	1.03989943	-22.837576	400	5	1.05	0.95	110.5637	-0.5762	0.0000	0.0000;
	185	1	0	0	0	0	1	1.03991668	-22.8420079	400	5	1.05	0.95	110.5665	-0.5760	0.0000	0.0000;
	186	1	0	0	0	0	1	1.02166262	-22.308024	400	5	1.05	0.95	109.9911	0.0207	0.0000	0.0000;
	187	1	0	0	0	0	1	1.02169006	-22.3122356	400	5	1.05	0.95	109.9940	0.0207	0.0000	0.0000;
	188	1	0	0	0	0	1	1.02112865	-26.149498	220	5	1.11	0.95	112.0495	0.4732	0.0000	0.0000;
	189	1	0	0	0	0	1	1.02120929	-26.1510543	220	5	1.11	0.95	112.0501	0.4725	0.0000	0.0000;
	190	1	0	0	0	0	1	1.06375417	-23.6259413	220	5	1.11	0.95	109.8131	-0.4616	0.0000	0.0000;
	191	1	0	0	0	0	1	1.06364384	-23.6274856	220	5	1.11	0.95	109.8138	-0.4625	0.0000	0.0000;
	192	1	0	0	0	0	1	0.985443869	-20.8468412	400	5	1.05	0.95	108.9619	0.0646	0.0000	0.0000;
	193	1	0	0	0	0	1	1.04825763	-21.9388614	220	5	1.11	0.95	109.2100	0.0979	0.0000	0.0000;
	194	1	0	0	0	0	1	1.04832638	-21.9349296	220	5	1.11	0.95	109.2090	0.0981	0.0000	0.0000;
	195	1	0	0	0	0	1	1.00813197	-24.2817817	400	5	1.05	0.95	111.1787	0.1111	0.0000	0.0000;
	196	1	0	0	0	0	1	1.00807715	-24.2867338	400	5	1.05	0.95	111.1820	0.1117	0.0000	0.0000;
	197	1	0	0	0	0	1	1.05259286	-26.8089339	220	5	1.11	0.95	112.6796	0.3221	0.0000	0.0000;
	198	1	0	0	0	0	1	1.05263102	-26.8020331	220	5	1.11	0.95	112.6765	0.3220	0.0000	0.0000;
	199	1	0	0	0	0	1	1.04425345	-20.9333234	400	5	1.05	0.95	109.5722	-0.3075	0.0000	0.0000;
	200	1	0	0	0	0	1	1.04426825	-20.927887	400	5	1.05	0.95	109.5718	-0.3087	0.0000	0.0000;
	201	1	0	0	0	0	1	1.03624043	-24.7372138	220	5	1.11	0.95	111.4262	0.5281	0.0000	0.0000;
	202	1	0	0	0	0	1	1.03618379	-24.7352333	220	5	1.11	0.95	111.4280	0.5310	0.0000	0.0000;
	203	1	0	0	0	0	1	1.03381136	-22.828363	220	5	1.11	0.95	110.7768	1.0775	0.0000	0.0000;
	204	1	0	0	0	0	1	1.03373975	-22.8429772	220	5	1.11	0.95	110.7830	1.0769	0.0000	0.0000;
	205	2	0	0	0	0	1	1.0325	-20.9255524	400	5	1.05	0.95	109.4371	0.0004	0.0000	0.0000;
	206	2	0	0	0	0	1	1.0325	-20.9251677	400	5	1.05	0.95	109.4373	0.0000	0.0000	0.0000;
	207	1	0	0	0	0	1	1.07982121	-26.5149326	220	5	1.11	0.95	112.2907	-0.8014	0.0000	0.0000;
	208	1	0	0	0	0	1	1.07986589	-26.5088252	220	5	1.11	0.95	112.2865	-0.8038	0.0000	0.0000;
	209	1	8.101	1.5	0	0	1	1.050601	-24.4142267	110	1	1.12	0.95	112.0290	-0.1334	0.0000	0.0000;
	210	1	8.101	1	0	0	1	1.05944304	-33.4567737	110	1	1.12	0.95	120.3339	1.5128	0.0000	0.0000;
	211	1	9.114	2	0	0	1	1.05414142	-21.8215508	110	1	1.12	0.95	107.5431	2.2480	0.0000	0.0000;
	212	1	8.911	7.8	0	0	1	0.982323451	-27.1225799	110	1	1.12	0.95	117.0338	5.2337	0.0000	0.0000;
	213	1	4.05	1	0	0	1	1.04570326	-2.06841333	110	1	1.12	0.95	99.1423	0.4609	0.0000	0.0000;
	214	1	9.619	2.5	0	0	1	1.0651022	-3.963211	110	1	1.12	0.95	99.3438	0.4814	0.0000	0.0000;
	215	2	51.981	24.3	0	0	1	1.08646	-22.9421836	110	1	1.12	0.95	107.6029	0.0000	0.0000	0.0000;
	216	1	22.276	2.5	0	0	1	1.08782098	-22.8854675	110	1	1.12	0.95	107.4659	-0.2070	0.0000	0.0000;
	217	1	10.126	2	0	0	1	1.08723169	-22.9259278	110	1	1.12	0.95	107.5290	-0.1504	0.0000	0.0000;
	218	1	11.138	2	0	0	1	1.08638017	-23.1577237	110	1	1.12	0.95	107.8125	-0.0143	0.0000	0.0000;
	219	2	13.163	2.5	0	0	1	1.04401	-24.9594131	110	1	1.12	0.95	112.3679	1.5862	0.0000	0.0000;
	220	1	9.114	2.25	0	0	1	1.03560075	-23.9966957	110	1	1.12	0.95	110.7514	2.7143	0.0000	0.0000;
	221	1	0	0	0	0	1	1.06274888	-18.4624339	110	1	1.12	0.95	103.9522	1.5232	0.0000	0.0000;
	222	1	11.138	2.4	0	0	1	1.04883602	-11.1164285	110	1	1.12	0.95	104.6575	0.0483	0.0000	0.0000;
	223	1	17.214	3.1	0	0	1	1.05718161	-23.875344	110	1	1.12	0.95	109.6738	1.7235	0.0000	0.0000;
	224	1	1.519	0.4	0	0	1	1.02910789	-4.84932479	110	1	1.12	0.95	101.4993	0.8091	0.0000	0.0000;
	225	1	5.265	0.8	0	0	1	1.08862329	-24.1190164	110	1	1.12	0.95	109.1465	0.1974	0.0000	0.0000;
	226	1	5.569	0.5	0	0	1	1.07900374	-28.7722589	110	1	1.12	0.95	114.0974	0.5400	0.0000	0.0000;
	227	1	19.239	2	0	0	1	1.07231034	-23.791761	110	1	1.12	0.95	109.8932	-0.3936	0.0000	0.0000;
	228	1	11.138	2	0	0	1	1.05885462	-24.2923637	110	1	1.12	0.95	109.9471	1.5913	0.0000	0.0000;
	229	1	2.633	1.03	0	0	1	1.06325921	-11.169186	110	1	1.12	0.95	103.1419	0.5625	0.0000	0.0000;
	230	1	2.633	1.03	0	0	1	1.06350807	-11.1644105	110	1	1.12	0.95	103.1379	0.5598	0.0000	0.0000;
	231	1	16.201	6	0	0	1	1.04481713	-24.4710131	110	1	1.12	0.95	110.7937	2.1783	0.0000	0.0000;
	232	1	10.126	1.1	0	0	1	1.06683236	-3.78730304	110	1	1.12	0.95	99.1497	0.4447	0.0000	0.0000;
	233	1	9.619	1.5	0	0	1	1.0483754	-13.4038741	110	1	1.12	0.95	105.0936	0.7011	0.0000	0.0000;
	234	1	22.277	17	0	0	1	1.04565868	-2.0215742	110	1	1.12	0.95	98.5048	0.5968	0.0000	0.0000;
	235	1	8.607	0.6	0	0	1	1.06667185	-27.1552146	110	1	1.12	0.95	113.0900	0.4104	0.0000	0.0000;
	236	1	13.568	4.41	0	0	1	1.06345176	-10.2422328	110	1	1.12	0.95	101.9269	0.5930	0.0000	0.0000;
	237	1	7.695	0.8	0	0	1	1.06503955	-27.3146907	110	1	1.12	0.95	113.3063	0.4526	0.0000	0.0000;
	238	1	10.126	1.5	0	0	1	1.06419706	-26.1512599	110	1	1.12	0.95	112.1482	0.2544	0.0000	0.0000;
	239	1	4.493	1.175	0	0	1	1.03328017	-25.7835624	110	1	1.12	0.95	112.9996	2.2671	0.0000	0.0000;
	240	1	13.872	0.6	0	0	1	1.0753952	-28.5162575	110	1	1.12	0.95	113.8467	0.2846	0.0000	0.0000;
	241	1	7.594	2.19	0	0	1	1.06427257	-10.7669409	110	1	1.12	0.95	102.5643	0.6251	0.0000	0.0000;
	242	1	10.632	0.4	0	0	1	1.0982381	-5.81294536	110	1	1.12	0.95	98.0259	-3.4396	0.0000	0.0000;
	243	1	0	0	0	0	1	1.09835969	-5.78869942	110	1	1.12	0.95	98.0236	-3.4588	0.0000	0.0000;
	244	1	3.038	1.4	0	0	1	1.0793663	-23.278178	110	1	1.12	0.95	109.1819	0.0384	0.0000	0.0000;
	245	1	0	0	0	0	1	1.04834087	0.126029918	110	1	1.12	0.95	97.7998	0.3046	0.0000	0.0000;
	246	2	1.982	5	0	0	1	1.03502	4.12063225	22	1	1.12	0.95	98.0779	0.0000	0.0000	0.0000;
	247	1	11.138	1.5	0	0	1	1.07060423	-30.5586753	110	1	1.12	0.95	116.3804	0.9888	0.0000	0.0000;
	248	1	3.038	0.5	0	0	1	1.0903665	-30.5927101	110	1	1.12	0.95	114.7312	1.0420	0.0000	0.0000;
	249	1	3.038	0.5	0	0	1	1.08233893	-29.2816133	110	1	1.12	0.95	114.0965	0.6239	0.0000	0.0000;
	250	1	4.05	0.5	0	0	1	1.03133953	-35.8902786	110	1	1.12	0.95	125.9132	1.6173	0.0000	0.0000;
	251	1	4.86	0.3	0	0	1	1.08125025	-22.8079689	110	1	1.12	0.95	108.0353	0.6194	0.0000	0.0000;
	252	1	19.239	7	0	0	1	1.052136	-17.9282987	110	1	1.12	0.95	105.9358	1.3582	0.0000	0.0000;
	253	1	22.276	4	0	0	1	1.04664548	-24.5802611	110	1	1.12	0.95	110.7940	2.0738	0.0000	0.0000;
	254	1	16.201	2	0	0	1	1.07278843	-32.6473951	110	1	1.12	0.95	117.7698	1.3001	0.0000	0.0000;
	255	1	24.302	1.5	0	0	1	1.07474321	-28.7740416	110	1	1.12	0.95	113.9228	0.7667	0.0000	0.0000;
	256	1	5.569	1	0	0	1	1.07639184	-28.9122625	110	1	1.12	0.95	113.9625	0.7960	0.0000	0.0000;
	257	1	4.303	0.6	0	0	1	1.04241817	-2.02879521	110	1	1.12	0.95	99.5800	0.4730	0.0000	0.0000;
	258	1	4.303	0.6	0	0	1	1.04233916	-2.04648565	110	1	1.12	0.95	99.5862	0.4743	0.0000	0.0000;
	259	1	11.24	3.24	0	0	1	1.05157073	-12.2137484	110	1	1.12	0.95	104.4389	0.8626	0.0000	0.0000;
	260	1	7.088	1	0	0	1	1.02786726	-36.5134311	110	1	1.12	0.95	126.8275	1.6079	0.0000	0.0000;
	261	1	2.633	1.2	0	0	1	1.06389411	-22.0835427	110	1	1.12	0.95	108.0961	1.7503	0.0000	0.0000;
	262	1	11.341	1.8	0	0	1	1.04859236	-21.8140897	110	1	1.12	0.95	108.6858	1.9691	0.0000	0.0000;
	263	1	2.329	1.1	0	0	1	1.06552032	-28.0322368	110	1	1.12	0.95	113.9400	0.4602	0.0000	0.0000;
	264	1	40.503	34	0	0	1	1.05008342	-0.508762896	110	1	1.12	0.95	98.0373	0.3063	0.0000	0.0000;
	265	1	38.479	33	0	0	1	1.06144263	-3.2543877	110	1	1.12	0.95	98.6688	0.5269	0.0000	0.0000;
	266	1	6.075	1	0	0	1	1.04700929	-24.0229747	110	1	1.12	0.95	110.3697	2.1459	0.0000	0.0000;
	267	1	13.67	0.7	0	0	1	1.05602945	-24.8388347	110	1	1.12	0.95	111.0193	1.3673	0.0000	0.0000;
	268	1	9.923	1.8	0	0	1	1.08715435	-22.2780179	110	1	1.12	0.95	107.3870	0.4119	0.0000	0.0000;
	269	1	13.163	1.5	0	0	1	1.07134544	-24.149438	110	1	1.12	0.95	110.2340	-0.2786	0.0000	0.0000;
	270	1	10.125	1.5	0	0	1	1.0344429	-35.2751763	110	1	1.12	0.95	125.0794	1.6235	0.0000	0.0000;
	271	1	18.227	4.5	0	0	1	1.03639319	-23.126986	110	1	1.12	0.95	109.4598	2.8328	0.0000	0.0000;
	272	1	0.304	0.1	0	0	1	1.04242993	-24.6331992	110	1	1.12	0.95	112.3207	1.8325	0.0000	0.0000;
	273	1	0.506	0.15	0	0	1	1.0686246	-21.8519239	110	1	1.12	0.95	107.4478	1.4364	0.0000	0.0000;
	274	1	0.202	0.06	0	0	1	1.06066547	-22.3276038	110	1	1.12	0.95	108.0793	1.8793	0.0000	0.0000;
	275	1	12.88	5.8	0	0	1	1.07156871	-9.81000301	110	1	1.12	0.95	101.6324	0.7997	0.0000	0.0000;
	276	1	8.587	3.87	0	0	1	1.06780764	-10.0938678	110	1	1.12	0.95	101.6205	0.6453	0.0000	0.0000;
	277	1	9.619	1.2	0	0	1	1.05489647	-10.640914	110	1	1.12	0.95	103.8088	-0.0938	0.0000	0.0000;
	278	1	3.038	0.5	0	0	1	1.08187297	-24.1072105	110	1	1.12	0.95	109.1708	0.0833	0.0000	0.0000;
	279	1	8.101	0	0	0	1	1.07494349	-25.4842579	110	1	1.12	0.95	111.2609	0.2832	0.0000	0.0000;
	280	1	15.188	2	0	0	1	1.06806478	-22.0392354	110	1	1.12	0.95	107.7341	1.5358	0.0000	0.0000;
	281	1	9.62	2	0	0	1	1.04253995	-23.325221	110	1	1.12	0.95	109.8008	2.1396	0.0000	0.0000;
	282	1	17.213	13.999	0	0	1	1.0507515	-2.94883501	110	1	1.12	0.95	98.7273	0.6171	0.0000	0.0000;
	283	1	16.202	13	0	0	1	1.05048436	-2.93110343	110	1	1.12	0.95	98.7273	0.6176	0.0000	0.0000;
	284	1	13.771	4.47	0	0	1	1.07215259	-9.61497626	110	1	1.12	0.95	101.4883	0.8583	0.0000	0.0000;
	285	1	15.189	4	0	0	1	1.06240944	-10.9270635	110	1	1.12	0.95	102.8630	0.9682	0.0000	0.0000;
	286	1	10.126	1	0	0	1	1.07680589	-28.0428972	110	1	1.12	0.95	113.8097	0.4902	0.0000	0.0000;
	287	1	5.063	0	0	0	1	1.08096887	-25.3335503	110	1	1.12	0.95	109.9705	0.3685	0.0000	0.0000;
	288	1	3.037	2.5	0	0	1	1.03328116	-25.0471253	110	1	1.12	0.95	112.0713	2.4301	0.0000	0.0000;
	289	1	4.05	0.501	0	0	1	1.05599087	-13.4032187	110	1	1.12	0.95	105.7921	0.3637	0.0000	0.0000;
	290	1	21.77	6.7	0	0	1	1.04388798	-23.1861708	110	1	1.12	0.95	109.6254	2.1057	0.0000	0.0000;
	291	2	15.999	1.6	0	0	1	1.06439	-22.1474254	110	1	1.12	0.95	108.0721	1.6229	0.0000	0.0000;
	292	1	8.202	2.37	0	0	1	1.07517648	-9.27412983	110	1	1.12	0.95	101.0950	0.8335	0.0000	0.0000;
	293	1	5.366	1	0	0	1	1.04721023	-22.6146524	110	1	1.12	0.95	109.5035	0.3113	0.0000	0.0000;
	294	2	7.493	0.3	0	0	1	1.05278	-25.391665	110	1	1.12	0.95	111.8991	1.2777	0.0000	0.0000;
	295	1	13.163	0.4	0	0	1	1.05503398	-13.3249048	110	1	1.12	0.95	105.6598	0.4190	0.0000	0.0000;
	296	1	6.582	1.5	0	0	1	1.06845377	-9.47343865	110	1	1.12	0.95	102.0099	-0.9808	0.0000	0.0000;
	297	1	10.328	3.36	0	0	1	1.0575616	-11.3553173	110	1	1.12	0.95	103.3988	0.7171	0.0000	0.0000;
	298	1	14.885	4.7	0	0	1	1.06193179	-11.2732528	110	1	1.12	0.95	103.2775	0.6095	0.0000	0.0000;
	299	2	15.188	4	0	0	1	1.08358	-23.7962366	110	1	1.12	0.95	108.7371	-0.1596	0.0000	0.0000;
	300	1	0	0	0	0	1	1.06806251	-10.0980264	110	1	1.12	0.95	101.6206	0.6306	0.0000	0.0000;
	301	1	5.569	1.2	0	0	1	1.02028915	-5.8388353	110	1	1.12	0.95	102.7966	0.9675	0.0000	0.0000;
	302	1	10.835	3.52	0	0	1	1.07527602	-9.26257635	110	1	1.12	0.95	101.0821	0.8318	0.0000	0.0000;
	303	1	13.062	3.77	0	0	1	1.06411087	-10.7514325	110	1	1.12	0.95	102.5415	0.6394	0.0000	0.0000;
	304	1	25.719	7.42	0	0	1	1.07141286	-9.77806493	110	1	1.12	0.95	101.6417	0.8263	0.0000	0.0000;
	305	1	25.72	7.42	0	0	1	1.05707788	-11.3848423	110	1	1.12	0.95	103.4445	0.6832	0.0000	0.0000;
	306	2	97.275	54.72	0	0	1	1.05332	-11.2502919	110	1	1.12	0.95	103.3043	0.9479	0.0000	0.0000;
	307	2	62.22	22.54	0	0	1	1.05854	-11.2551499	110	1	1.12	0.95	103.3021	0.6146	0.0000	0.0000;
	308	2	35.918	13.2	0	0	1	1.067	-10.8206692	110	1	1.12	0.95	102.6465	0.4584	0.0000	0.0000;
	309	1	0	0	0	0	1	1.05738833	-11.3660507	110	1	1.12	0.95	103.4159	0.7040	0.0000	0.0000;
	310	2	39.452	17.47	0	0	1	1.07303	-9.71167228	110	1	1.12	0.95	101.5140	0.7376	0.0000	0.0000;
	311	2	30.853	15.45	0	0	1	1.06272	-10.2189564	110	1	1.12	0.95	101.8647	0.5093	0.0000	0.0000;
	312	1	15.492	0.8	0	0	1	1.05817731	-12.3009932	110	1	1.12	0.95	104.4747	0.4784	0.0000	0.0000;
	313	1	2.531	0.5	0	0	1	1.07617125	-23.9791054	110	1	1.12	0.95	109.4912	-0.2293	0.0000	0.0000;
	314	1	3.038	1	0	0	1	1.03145169	-25.2617524	110	1	1.12	0.95	112.4006	2.5679	0.0000	0.0000;
	315	1	8.606	2.1	0	0	1	1.03047893	-25.6921053	110	1	1.12	0.95	112.9465	2.4907	0.0000	0.0000;
	316	1	11.644	2.6	0	0	1	1.03043238	-25.6824295	110	1	1.12	0.95	112.9410	2.4915	0.0000	0.0000;
	317	1	13.67	3.6	0	0	1	1.04158404	-22.5137009	110	1	1.12	0.95	108.4887	2.7675	0.0000	0.0000;
	318	1	13.366	3.85	0	0	1	1.07210111	-9.67036291	110	1	1.12	0.95	101.5184	0.8431	0.0000	0.0000;
	319	2	19.138	5.52	0	0	1	1.07001	-9.97032614	110	1	1.12	0.95	101.8157	0.8166	0.0000	0.0000;
	320	1	17.214	3	0	0	1	1.07487271	-25.7346099	110	1	1.12	0.95	111.6814	0.3189	0.0000	0.0000;
	321	1	18.732	6.09	0	0	1	1.06230875	-10.2720442	110	1	1.12	0.95	101.9241	0.5424	0.0000	0.0000;
	322	1	19.138	6.22	0	0	1	1.05145973	-11.393955	110	1	1.12	0.95	103.4777	1.0039	0.0000	0.0000;
	323	1	8.202	2.66	0	0	1	1.05365049	-11.3439506	110	1	1.12	0.95	103.4043	0.9139	0.0000	0.0000;
	324	1	15.189	3	0	0	1	1.07473517	-25.523401	110	1	1.12	0.95	111.3398	0.3025	0.0000	0.0000;
	325	1	20.251	3	0	0	1	1.04462371	-25.4695027	110	1	1.12	0.95	112.7873	1.7339	0.0000	0.0000;
	326	1	17.821	5.14	0	0	1	1.05368109	-11.346172	110	1	1.12	0.95	103.4063	0.9125	0.0000	0.0000;
	327	1	9.619	2	0	0	1	1.0628758	-10.413382	110	1	1.12	0.95	102.5690	0.0690	0.0000	0.0000;
	328	1	4.557	1	0	0	1	1.06277346	-10.4149888	110	1	1.12	0.95	102.6237	0.0094	0.0000	0.0000;
	329	1	51.743	14.92	0	0	1	1.06739373	-10.1667267	110	1	1.12	0.95	102.0508	0.9030	0.0000	0.0000;
	330	1	18.53	2	0	0	1	1.06021298	-18.1004532	110	1	1.12	0.95	105.9280	-0.5061	0.0000	0.0000;
	331	1	0	0	0	0	1	1.05189737	-12.2230203	110	1	1.12	0.95	104.4392	0.8288	0.0000	0.0000;
	332	1	13.163	3	0	0	1	1.0425908	-25.6136534	110	1	1.12	0.95	113.0812	1.7989	0.0000	0.0000;