function mpc = case1354pegase_resqlim
%CASE1354PEGASE_RESQLIM

%% MATPOWER Case Format : Version 2
mpc.version = '2';

%%-----  Power Flow Data  -----%%
%% system MVA base
mpc.baseMVA = 100;

%% bus data
%    bus_i    type    Pd    Qd    Gs    Bs    area    Vm    Va    baseKV    zone    Vmax    Vmin
mpc.bus = [
    3    1    151    48.8    0    4.69    0    1.01667005    -21.7963356    220    5    1.1    0.9;
    4    1    171.41    23.4    0    2.1    0    1.02603626    -6.94048224    220    5    1.1    0.9;
    10    1    134    24.7    0    12.44    0    1.03739934    -24.3170903    220    5    1.1    0.9;
    21    1    161.2    39.3    0    30.71    0    1.03522531    -21.9824505    220    5    1.1    0.9;
    22    1    0    -0    0    0.85    0    1.03361164    -18.5279167    220    5    1.1    0.9;
    26    1    167.3    54.8    0    110.54    0    1.03225775    -3.29142978    380    5    1.1    0.9;
    29    1    152.9    49.4    0    27.65    0    0.993330899    -13.7151554    380    5    1.1    0.9;
    44    1    -0    0    0    7.27    0    1.04475585    -22.2115787    220    5    1.1    0.9;
    53    1    48.65    16.1    0    7.14    0    1.06342864    -9.12317101    220    5    1.1    0.9;
    58    1    0    0    0    2.31    0    0.986242542    -15.6441257    380    5    1.1    0.9;
    59    1    119.2    20.7    0    3.31    0    1.02164585    -23.9539575    220    5    1.1    0.9;
    90    1    363.25    115.39    0    3.95    0    1.04042213    -27.7915393    220    5    1.1    0.9;
    96    1    -8.4    28.66    0    3.49    0    1.02963381    -15.6140227    220    5    1.1    0.9;
    113    1    -0    -0    0    6.532711    0    1.03053951    -14.306578    380    5    1.1    0.9;
    115    1    0    -0    0    4.21    0    1.06654333    -19.7700389    220    5    1.1    0.9;
    118    1    704.53    -35.33    0    13.102834    0    1.02024299    -11.3810159    380    5    1.1    0.9;
    124    2    0    0    0    0    0    1.081537    8.38736737    220    5    1.1    0.9;
    128    1    23.73    12.7    0    0.52    0    1.02006624    -16.1277795    220    5    1.1    0.9;
    145    1    38.34    5.6    0    7.64    0    1.03909547    -8.87888163    220    5    1.1    0.9;
    148    1    32.34    12    0    6.1    0    1.04156827    -7.94354464    220    5    1.1    0.9;
    150    2    0    0    0    0    0    1.062805    2.57930524    220    5    1.1    0.9;
    163    1    147.76    32.73    0    8.34    0    1.04214509    -10.6836156    220    5    1.1    0.9;
    171    1    100.8    13.2    0    5.24    0    1.06951751    -25.3130769    220    5    1.1    0.9;
    174    1    370.5    -17    0    9.91    0    1.07443436    -27.9648305    220    5    1.1    0.9;
    184    1    -0    -0    0    2.42    0    1.04243906    -12.1330927    220    5    1.1    0.9;
    188    1    36.84    13.9    0    3.3    0    1.01783085    -19.6151935    220    5    1.1    0.9;
    195    1    73.14    21.55    0    8.52    0    1.05633569    -8.57206606    220    5    1.1    0.9;
    196    1    0    -0    0    12.48    0    1.07341603    -26.3564862    220    5    1.1    0.9;
    198    1    39.74    11.8    0    1.44    0    1.01617484    -16.3704461    220    5    1.1    0.9;
    207    1    321.98    84.4    0    1.34    0    1.02642854    -13.7031171    220    5    1.1    0.9;
    216    1    155.6    54.7    0    2.21    0    1.03934137    -24.6242478    220    5    1.1    0.9;
    217    1    105.2    0.1    0    7.36    0    1.0427322    -2.64176708    220    5    1.1    0.9;
    218    1    69.83    15.12    0    2.23    0    1.04541034    -13.1404321    220    5    1.1    0.9;
    221    2    0    0    0    0    0    0.984682    -16.2791482    380    5    1.1    0.9;
    225    1    0    0    0    1.15    0    1.06350515    -20.160793    220    5    1.1    0.9;
    280    1    119.6    29.6    0    5.34    0    1.03446573    -11.2382291    220    5    1.1    0.9;
    283    1    27.33    11.9    0    1.17    0    1.03520469    -12.3919765    220    5    1.1    0.9;
    292    1    13.82    1.4    0    0.7    0    1.04294674    -14.7933931    220    5    1.1    0.9;
    305    1    103    12    0    0.63    0    1.06688579    -32.7013029    220    5    1.1    0.9;
    306    1    -0    0    0    4.76    0    1.02859945    -18.8399305    220    5    1.1    0.9;
    314    1    163.1    46.3    0    10.6    0    1.00398448    -16.0789612    220    5    1.1    0.9;
    333    1    524.5    43    0    6.85    0    1.01261378    -42.329255    220    5    1.1    0.9;
    338    2    0    0    0    0    0    1.048249    -6.10485421    220    5    1.1    0.9;
    346    1    197.5    48.3    0    0.71    0    1.04041093    -21.3300985    220    5    1.1    0.9;
    350    1    110.4    26.2    0    5.62    0    1.04284925    -24.3209146    220    5    1.1    0.9;
    352    2    0    0    0    0    0    1.055378    0.282315313    380    5    1.1    0.9;
    367    1    65.17    -51.5    0    4.85    0    1.07028691    -23.6292393    220    5    1.1    0.9;
    401    1    56.5    36.29    0    3.08    0    1.02654723    -14.4048824    220    5    1.1    0.9;
    408    1    129.1    7.4    0    0.04    0    1.03979036    -11.9135808    220    5    1.1    0.9;
    410    1    170.89    50.38    0    6.44    0    1.02554331    -26.8200111    220    5    1.1    0.9;
    413    2    0    0    0    0    0    1.05013    -6.59423024    220    5    1.1    0.9;
    416    1    70.68    13.5    0    6.96    0    1.04577967    -6.75082919    220    5    1.1    0.9;
    426    1    123.1    6.5    0    3.25    0    1.04018115    -18.4886929    220    5    1.1    0.9;
    432    1    -0    -0    0    68.517663    0    1.04692532    2.45614975    380    5    1.1    0.9;
    444    1    0    -0    0    2.45    0    1.03610524    -12.4441393    220    5    1.1    0.9;
    449    1    0    0    0    29.42    0    1.02167847    -8.47771563    380    5    1.1    0.9;
    453    2    0    0    0    0    0    1.018914    -7.78883605    380    5    1.1    0.9;
    455    1    274.32    5.66    0    13.24    0    1.04186008    -31.0297104    220    5    1.1    0.9;
    490    1    20.52    4    0    2.77    0    1.03645157    -23.038382    220    5    1.1    0.9;
    500    1    144.4    35.5    0    7.66    0    1.04041517    -15.0667785    220    5    1.1    0.9;
    502    1    -0    0    0    1.96    0    1.04356435    -6.62873759    220    5    1.1    0.9;
    506    1    -0    0    0    0.4    0    1.06322293    -9.23793081    380    5    1.1    0.9;
    513    1    57.46    17.1    0    1.61    0    1.03841141    -7.39341304    220    5    1.1    0.9;
    516    2    0    0    0    0    0    1.075592    -33.4919102    220    5    1.1    0.9;
    520    1    118.5    20.4    0    2.57    0    1.04744396    -27.3964056    220    5    1.1    0.9;
    549    1    0    -0    0    5.15    0    1.07528095    -10.5752765    220    5    1.1    0.9;
    554    1    0    -0    0    1.97    0    1.02260056    -20.8441719    220    5    1.1    0.9;
    556    1    16.52    9    0    1.17    0    1.03687169    -22.7863101    220    5    1.1    0.9;
    561    1    0    -0    0    0.32    0    1.05544887    -11.128433    220    5    1.1    0.9;
    564    2    0    0    0    0    0    1.069817    -47.2983193    220    5    1.1    0.9;
    575    1    0    -0    0    0.67    0    1.04421685    -11.4348905    220    5    1.1    0.9;
    583    2    0    0    0    0    0    1.045397    -15.5948914    220    5    1.1    0.9;
    594    1    67.57    17    0    5.75    0    1.03663634    -8.85695616    220    5    1.1    0.9;
    601    1    140.6    42.6    0    5.71    0    1.03932284    -14.4698933    220    5    1.1    0.9;
    604    1    33.24    4.4    0    24.54    0    0.996722123    -12.9581802    380    5    1.1    0.9;
    608    1    150.9    10.4    0    4.77    0    1.07175618    -32.8646466    220    5    1.1    0.9;
    609    1    -0    -0    0    5.67    0    1.0253277    -14.8031098    220    5    1.1    0.9;
    615    2    0    0    0    0    0    1.063876    -10.7750369    220    5    1.1    0.9;
    616    2    0    0    0    0    0    1.048713    -13.058714    220    5    1.1    0.9;
    619    1    72.88    14.4    0    2.96    0    1.04542462    -25.3149242    220    5    1.1    0.9;
    639    2    0    0    0    0    0    1.051376    -30.3106853    220    5    1.1    0.9;
    641    1    45.32    18.5    0    0.74    0    1.03515015    -13.8727321    220    5    1.1    0.9;
    658    1    258.4    66.7    0    5.87    0    1.03370429    -17.5701523    220    5    1.1    0.9;
    661    1    -0    -0    0    0.6    0    1.04000632    2.37293401    380    5    1.1    0.9;
    666    1    -5.61    -2.79    0    150.93    0    1.03018989    -5.43014693    380    5    1.1    0.9;
    678    1    232.1    89.8    0    0.09    0    0.986375398    -18.3346383    220    5    1.1    0.9;
    682    2    0    0    0    0    0    1.0691    -9.78607825    220    5    1.1    0.9;
    687    1    -0    0    0    5.6    0    1.0576589    -3.62593139    220    5    1.1    0.9;
    707    1    83.99    21.2    0    5.36    0    1.05427731    -25.7688334    220    5    1.1    0.9;
    718    1    135.11    41    0    5.31    0    1.03004495    -25.1660477    220    5    1.1    0.9;
    720    1    -0    -0    0    23.554121    0    0.981555478    -27.127862    380    5    1.1    0.9;
    726    1    400.3    189.9    0    0.53    0    1.04830987    -4.49037156    220    5    1.1    0.9;
    742    1    0    -0    0    2.83    0    1.05782861    -3.6274396    220    5    1.1    0.9;
    747    1    69.58    16    0    3.03    0    1.07251243    -26.4173486    220    5    1.1    0.9;
    749    2    0    0    0    0    0    1.057884    -29.2020655    220    5    1.1    0.9;
    750    1    -0    -0    0    18.63    0    1.04112079    -24.4784928    220    5    1.1    0.9;
    757    1    0    0    0    0    0    1.01563609    -13.8076249    380    5    1.1    0.9;
    766    1    -0    0    0    7.85    0    1.04915406    -20.8043771    220    5    1.1    0.9;
    769    1    152.57    40    0    6.12    0    1.02338384    -10.6761058    220    5    1.1    0.9;
    772    1    343.9    141.9    0    5.55    0    1.03433856    -14.191242    220    5    1.1    0.9;
    776    2    0    0    0    0    0    1.026368    -13.3294766    220    5    1.1    0.9;
    778    2    0    0    0    0    0    1.049411    -6.62326847    220    5    1.1    0.9;
    789    1    -0    -0    0    6.63    0    1.05168099    -5.97533532    220    5    1.1    0.9;
    795    2    0    0    0    0    0    1.035522    -15.4149202    220    5    1.1    0.9;
    800    1    50.56    18    0    0.11    0    1.03477863    -12.4259318    220    5    1.1    0.9;
    803    2    0    0    0    0    0    1.041369    -25.0599547    220    5    1.1    0.9;
    804    1    -0    -0    0    7.26    0    1.05581397    -7.55031957    220    5    1.1    0.9;
    805    1    124.5    29.6    0    15.4    0    1.05617781    -11.1519382    220    5    1.1    0.9;
    809    1    0    -0    0    58.088687    0    1.02741893    0.102468738    380    5    1.1    0.9;
    819    1    0    -0    0    0.22    0    1.05216855    -0.685269115    220    5    1.1    0.9;
    823    2    0    0    0    0    0    1.044097    -2.1993653    380    5    1.1    0.9;
    839    1    -0    -0    0    8.17514    0    1.02392668    -1.20839135    380    5    1.1    0.9;
    851    2    0    0    0    0    0    1.00025    -17.1115641    220    5    1.1    0.9;
    858    2    0    0    0    0    0    1.031745    1.28279214    380    5    1.1    0.9;
    870    1    110    3.4    0    11.95    0    1.04074123    -24.6357525    220    5    1.1    0.9;
    871    1    108.89    -21.76    0    3.72    0    1.05673584    -12.0136671    220    5    1.1    0.9;
    883    1    192.5    78.3    0    6.65    0    1.01717336    -10.106658    220    5    1.1    0.9;
    891    2    0    0    0    0    0    1.064525    -19.0544687    380    5    1.1    0.9;
    892    1    -0    -0    0    9.1    0    1.06916596    -35.0359832    220    5    1.1    0.9;
    900    1    0    0    0    0.15    0    1.05001367    -15.4988409    220    5    1.1    0.9;
    903    1    82.69    20.1    0    1.36    0    1.07247442    -26.4425625    220    5    1.1    0.9;
    905    1    631.71    -54.16    0    7.534129    0    1.03563965    -15.1018566    380    5    1.1    0.9;
    907    1    -0    -0    0    0.05    0    1.0385547    -9.74270647    220    5    1.1    0.9;
    908    1    125.9    -0.5    0    0.21    0    1.06521441    -8.0141228    220    5    1.1    0.9;
    920    1    34.44    8.5    0    1.11    0    1.04525526    -20.8013218    220    5    1.1    0.9;
    923    1    62.07    14.7    0    4.84    0    1.03557483    -23.1140209    220    5    1.1    0.9;
    933    1    -0    0    0    22.75    0    1.01966096    -21.559002    220    5    1.1    0.9;
    935    1    -0    0    0    9.46    0    1.04787722    -24.5310667    220    5    1.1    0.9;
    953    1    108.7    -12.15    0    37.11    0    1.06589509    -12.9760442    380    5    1.1    0.9;
    954    1    66.27    13.6    0    0.67    0    1.0440243    -21.5769019    220    5    1.1    0.9;
    960    1    -0    -0    0    108.728602    0    1.06322162    -9.23792622    380    5    1.1    0.9;
    964    1    88.5    16.5    0    146.44    0    1.01469869    -11.6995177    380    5    1.1    0.9;
    972    2    0    0    0    0    0    1.072621    5.33892259    380    5    1.3    0.7;
    980    1    14.71    4.6    0    7.88    0    1.04584785    -25.2008611    220    5    1.1    0.9;
    1001    1    0    0    0    0    0    1.07411267    -33.6602415    220    5    1.1    0.9;
    1002    2    0    0    0    0    0    1.041506    -20.1196263    220    5    1.1    0.9;
    1005    1    0    0    0    0.81    0    1.05395532    -12.5228757    220    5    1.1    0.9;
    1015    1    44.55    0    0    4.78    0    1.05627646    -5.41969776    220    5    1.1    0.9;
    1026    1    201.4    53    0    9.67    0    1.02696332    -29.6099326    220    5    1.1    0.9;
    1027    1    -5.91    -2.33    0    30.393595    0    0.989548456    -18.2007893    380    5    1.1    0.9;
    1033    1    26.33    5.3    0    4.31    0    1.04091371    -24.5556036    220    5    1.1    0.9;
    1035    1    382.5    57.9    0    8.16    0    1.06751268    -32.5890826    220    5    1.1    0.9;
    1039    1    34.64    -0    0    0.91    0    1.03443343    -19.5720631    220    5    1.1    0.9;
    1040    1    31.94    8.8    0    3.79    0    1.03891314    -9.00273796    220    5    1.1    0.9;
    1043    2    0    0    0    0    0    1.028946    -3.66444938    380    5    1.1    0.9;
    1051    1    -0    0    0    3.79    0    1.04162734    -12.9718645    220    5    1.1    0.9;
    1077    1    -0    0    0    0.1    0    1.03520624    -12.3919977    220    5    1.1    0.9;
    1078    1    -0    -0    0    4.74    0    1.06150956    -3.49309034    220    5    1.1    0.9;
    1081    1    277.86    58.95    0    182.880644    0    1.03833928    -10.5765    380    5    1.1    0.9;
    1083    2    0    0    0    0    0    1.049472    -8.63687836    220    5    1.1    0.9;
    1090    1    56.06    18.7    0    4.24    0    1.00862491    -21.7170376    220    5    1.1    0.9;
    1093    2    0    0    0    0    0    1.027056    -8.55067974    380    5    1.1    0.9;
    1096    1    0    -0    0    0.16    0    1.05018886    -1.08134525    220    5    1.1    0.9;
    1100    2    0    0    0    0    0    1.042801    -4.31693046    220    5    1.1    0.9;
    1101    1    -0    -0    0    2.05    0    1.03350878    -14.2328385    220    5    1.1    0.9;
    1102    2    0    0    0    0    0    1.049879    -6.62971799    220    5    1.1    0.9;
    1105    1    29.83    7.3    0    6.49    0    1.07335    -26.3625745    220    5    1.1    0.9;
    1111    1    0    0    0    1.1    0    1.03677661    -8.85886672    220    5    1.1    0.9;
    1129    1    190.47    55.03    0    6.7    0    1.00183866    -22.5598975    220    5    1.1    0.9;
    1136    1    16.22    2    0    0.71    0    1.03333975    -18.5837499    220    5    1.1    0.9;
    1137    1    -0    -0    0    0.05    0    1.04735965    -24.488863    220    5    1.1    0.9;
    1146    1    32.84    -0    0    1.41    0    1.03252561    -5.65080324    220    5    1.1    0.9;
    1151    1    -0    -0    0    18.82    0    1.04310175    -20.6393427    220    5    1.1    0.9;
    1153    1    12.41    3.9    0    2.23    0    1.03444939    -5.72745442    220    5    1.1    0.9;
    1156    1    65.67    24    0    9.95    0    1.03786998    -22.5243922    220    5    1.1    0.9;
    1159    1    112.4    13    0    3.99    0    1.05211177    -36.2368543    220    5    1.1    0.9;
    1172    1    -0    -0    0    2.3    0    1.07307377    -25.5919951    220    5    1.1    0.9;
    1179    1    86.6    23.4    0    0.39    0    1.04086571    -2.84072653    220    5    1.1    0.9;
    1183    1    199.4    -19.9    0    6.68    0    1.06593747    -32.9903465    220    5    1.1    0.9;
    1187    1    67.57    21.2    0    5.71    0    1.03973985    -4.9779115    220    5    1.1    0.9;
    1188    1    30.93    6.6    0    9.09    0    1.05433819    -14.3518429    220    5    1.1    0.9;
    1194    1    129.6    13.3    0    13.98    0    1.03877489    -15.1929041    380    5    1.1    0.9;
    1198    1    0    0    0    30.637696    0    0.985086091    -14.5580504    380    5    1.1    0.9;
    1201    1    114.1    23.5    0    1.08    0    1.03399704    -19.8323678    220    5    1.1    0.9;
    1216    1    0    0    0    4.93    0    1.03965651    -10.8355262    220    5    1.1    0.9;
    1233    1    0    -0    0    1.72    0    1.03779792    -22.5492501    220    5    1.1    0.9;
    1234    1    71.78    17.9    0    1.96    0    1.01514894    -16.5707358    220    5    1.1    0.9;
    1237    2    0    0    0    0    0    1.108028    -6.24457763    380    5    1.3    0.7;
    1248    1    0    0    0    1.17    0    1.04230228    -10.6851576    220    5    1.1    0.9;
    1249    1    348.93    26.47    0    9.36    0    1.01679327    -11.2506022    380    5    1.1    0.9;
    1251    2    0    0    0    0    0    1.027102    -8.56022356    380    5    1.1    0.9;
    1262    1    -0    0    0    10.73    0    1.0383992    -22.0565672    220    5    1.1    0.9;
    1265    1    173    -21.3    0    5.93    0    1.06642805    -50.1697259    220    5    1.1    0.9;
    1275    1    52.46    2.9    0    0.35    0    1.02958299    -18.9002755    220    5    1.1    0.9;
    1295    2    0    0    0    0    0    1.03682    -8.58581051    220    5    1.1    0.9;
    1301    1    479    99.2    0    10.68    0    1.05113931    -28.7497651    220    5    1.1    0.9;
    1305    1    -0    -0    0    4.34    0    1.0364309    -22.5872634    220    5    1.1    0.9;
    1311    1    37.94    15.2    0    35.31    0    1.03370701    -21.6884781    380    5    1.1    0.9;
    1326    1    0    0    0    0.98    0    1.06931561    -35.0369777    220    5    1.1    0.9;
    1334    1    0    0    0    0.59    0    1.01736344    -16.3558834    220    5    1.1    0.9;
    1341    2    0    0    0    0    0    1.032899    -14.2286886    220    5    1.1    0.9;
    1343    1    -0    -0    0    58.3    0    0.991652501    -14.1301419    380    5    1.1    0.9;
    1354    2    0    0    0    0    0    1.041045    -7.32734171    220    5    1.1    0.9;
    1355    1    -3.29    -1.32    0    190.704588    0    1.03245808    -8.59015363    380    5    1.1    0.9;
    1364    1    40.85    14.5    0    0.59    0    1.03496186    -12.1112337    220    5    1.1    0.9;
    1380    1    145.2    21.4    0    1.09    0    1.01730231    -22.8708761    220    5    1.1    0.9;
    1394    1    30.93    7.6    0    4.69    0    1.07325065    -26.3508659    220    5    1.1    0.9;
    1397    1    0    -0    0    2.14    0    1.03792354    -12.9637333    220    5    1.1    0.9;
    1398    1    196.7    44.2    0    0.1    0    1.01106625    -19.0816075    220    5    1.1    0.9;
    1401    1    11.91    2.9    0    5.27    0    1.03295898    -14.7833573    220    5    1.1    0.9;
    1414    1    144.7    20.3    0    6.35    0    1.02268233    -27.9238318    220    5    1.1    0.9;
    1415    1    0    -0    0    0.3    0    1.03185742    -11.5519887    220    5    1.1    0.9;
    1422    2    0    0    0    0    0    1.04353    -21.1520086    220    5    1.1    0.9;
    1435    1    -0    0    0    3.85    0    1.04442233    -24.3534164    220    5    1.1    0.9;
    1436    2    0    0    0    0    0    1.047684    -13.0603841    220    5    1.1    0.9;
    1448    1    0    0    0    9.49    0    1.074795    -15.3100289    220    5    1.1    0.9;
    1459    1    -0    -0    0    3.38    0    1.04263291    -21.8690049    220    5    1.1    0.9;
    1462    1    -0    0    0    0.42    0    1.04355165    -21.1525188    220    5    1.1    0.9;
    1465    1    -11.03    -5.11    0    29.706803    0    0.987478441    -15.3518941    380    5    1.1    0.9;
    1478    2    0    0    0    0    0    1.048068    -15.8552996    220    5    1.1    0.9;
    1483    1    0    0    0    4.86    0    1.06552019    -25.8386774    220    5    1.1    0.9;
    1486    1    79.59    18.8    0    6.78    0    1.03484643    -23.3658452    220    5    1.1    0.9;
    1494    1    -1.85    -1.63    0    31.424588    0    1.0341548    -11.5465874    380    5    1.1    0.9;
    1502    1    -0    0    0    37.116157    0    1.02736443    -26.7231945    380    5    1.1    0.9;
    1504    1    0    -0    0    1.84    0    1.02519118    -14.3837689    220    5    1.1    0.9;
    1526    1    -10.86    -5.93    0    12.54    0    1.04242166    -12.1324826    220    5    1.1    0.9;
    1538    1    36.34    15.2    0    0.3    0    1.03510788    -9.9871877    220    5    1.1    0.9;
    1539    1    73.58    3.24    0    52.35    0    1.05901257    -15.4091572    220    5    1.1    0.9;
    1541    1    125.4    45.8    0    0    0    1.03928202    -18.009682    220    5    1.1    0.9;
    1545    1    42.55    8.2    0    2.06    0    1.04110106    -23.50636    220    5    1.1    0.9;
    1547    1    -0    -0    0    1.02    0    1.04047313    -15.067322    220    5    1.1    0.9;
    1551    1    -0    -0    0    7.99    0    1.04220269    -20.4395817    220    5    1.1    0.9;
    1552    1    20.42    8.1    0    35.15    0    1.04230042    -16.688979    380    5    1.1    0.9;
    1554    1    0    -0    0    4.96    0    1.02031274    -16.1078213    220    5    1.1    0.9;
    1556    1    -0    -0    0    0.95    0    1.06163168    -11.5582858    220    5    1.1    0.9;
    1562    1    77.39    24.1    0    2.67    0    1.04091149    -25.9187518    220    5    1.1    0.9;
    1566    1    156.9    -4    0    2.48    0    1.03512853    -24.7926278    220    5    1.1    0.9;
    1568    1    69.08    21.5    0    1.65    0    1.04554145    -25.2171716    220    5    1.1    0.9;
    1578    1    0    -0    0    1.38    0    1.04026572    -12.2915668    220    5    1.1    0.9;
    1584    1    0    -0    0    3.24    0    1.02687043    -14.3827201    220    5    1.1    0.9;
    1592    1    28.33    44.8    0    0.51    0    1.03741038    -1.89822696    220    5    1.1    0.9;
    1595    1    71.77    13.57    0    3.84    0    1.01583918    -29.3117974    220    5    1.1    0.9;
    1604    2    0    0    0    0    0    1.043862    -6.5934341    220    5    1.1    0.9;
    1605    1    -0    0    0    0.05    0    1.07663414    -24.4019597    220    5    1.1    0.9;
    1607    1    73.78    -0    0    2.69    0    1.03010029    -5.53047181    380    5    1.1    0.9;
    1609    1    0    0    0    6.55    0    1.04986182    -20.7269229    220    5    1.1    0.9;
    1625    1    73.18    22.3    0    8.77    0    1.0490297    -20.8027127    220    5    1.1    0.9;
    1629    1    41.95    8.5    0    1.05    0    1.04353024    -11.1723609    220    5    1.1    0.9;
    1642    1    0    0    0    0    0    1.02825176    0.601663336    380    5    1.1    0.9;
    1643    1    95.71    25.9    0    11.38    0    1.04095139    -25.9522867    220    5    1.1    0.9;
    1644    1    449.56    245.72    0    94.55    0    1.05420397    3.41734534    380    5    1.1    0.9;
    1662    1    3.67    -1.86    0    3.89    0    1.04594617    -20.8333547    220    5    1.1    0.9;
    1672    1    -28.13    -0.83    0    0.1    0    1.06162255    -11.5713144    220    5    1.1    0.9;
    1680    2    0    0    0    0    0    1.04395    -2.19513376    380    5    1.1    0.9;
    1692    1    83.19    25.8    0    0.33    0    1.04700221    -10.6718131    220    5    1.1    0.9;
    1704    1    62.16    8    0    2.99    0    1.0389235    -13.1617845    220    5    1.1    0.9;
    1708    2    0    0    0    0    0    1.037938    -13.2501882    380    5    1.1    0.9;
    1709    1    -15.38    -4.94    0    33.241519    0    0.999477159    -14.7533712    380    5    1.1    0.9;
    1711    1    25.13    -61.6    0    3.68    0    1.05260299    -30.0908968    220    5    1.1    0.9;
    1721    2    0    0    0    0    0    1.062238    2.51423757    220    5    1.1    0.9;
    1730    1    -17.18    -4.35    0    44.419365    0    1.02560362    -14.4881473    380    5    1.1    0.9;
    1742    1    0    0    0    6.68    0    1.0287989    -32.146552    220    5    1.1    0.9;
    1746    1    -0    0    0    1.86    0    1.04805157    -24.149183    220    5    1.1    0.9;
    1750    1    58.46    6.6    0    10.13    0    1.03643094    -19.216346    220    5    1.1    0.9;
    1754    1    0    0    0    0    0    1.03715727    -17.3947434    380    5    1.1    0.9;
    1758    1    0    -0    0    121.29    0    1.03439857    -4.40538841    380    5    1.1    0.9;
    1763    1    -0    -0    0    0.28    0    1.03458832    -30.8565633    380    5    1.1    0.9;
    1767    1    333.5    -1.4    0    8.37    0    1.04935857    -45.6374849    220    5    1.1    0.9;
    1768    1    73.98    22.5    0    1.15    0    1.03800429    -11.1532024    220    5    1.1    0.9;
    1775    1    -0    0    0    1.64    0    1.05080226    -26.2394029    220    5    1.1    0.9;
    1794    2    0    0    0    0    0    1.05295    -0.217572537    380    5    1.1    0.9;
    1798    1    -0.63    -0.83    0    22.810288    0    0.986189394    -7.45584123    380    5    1.1    0.9;
    1803    1    -0    -0    0    0.05    0    1.03867456    -22.0586019    220    5    1.1    0.9;
    1808    2    0    0    0    0    0    1.046224    -0.793228337    220    5    1.1    0.9;
    1813    1    88.92    19.79    0    2.81    0    1.02877381    -7.46071745    220    5    1.1    0.9;
    1817    1    108.91    33.7    0    56.24    0    1.06947257    -12.5281871    380    5    1.1    0.9;
    1833    1    0    0    0    3.33    0    1.03586418    -22.504187    220    5    1.1    0.9;
    1838    1    0    -0    0    3.02    0    1.03683463    -22.1860186    220    5    1.1    0.9;
    1844    1    -28.14    -0.76    0    0.1    0    1.06164078    -11.5707605    220    5    1.1    0.9;
    1851    2    0    0    0    0    0    1.04762    -13.0698972    220    5    1.1    0.9;
    1852    2    0    0    0    0    0    1.054325    -25.9479971    220    5    1.1    0.9;
    1857    1    0    0    0    1.53    0    1.02860844    -11.0151884    220    5    1.1    0.9;
    1860    1    88.8    -3.2    0    13.63    0    1.05912856    -25.7711168    220    5    1.1    0.9;
    1866    1    209.2    23.5    0    6.44    0    1.04415269    -28.2984799    220    5    1.1    0.9;
    1868    1    11.71    3.8    0    2.96    0    1.03435443    -15.8040229    220    5    1.1    0.9;
    1876    1    -0    -0    0    6.273568    0    1.03061832    -14.3059178    380    5    1.1    0.9;
    1883    1    27.33    5    0    6.77    0    1.02139676    -16.4639142    220    5    1.1    0.9;
    1888    2    0    0    0    0    0    1.039377    -1.8623288    220    5    1.1    0.9;
    1895    1    20.82    -0    0    0.14    0    1.07029344    7.64486513    220    5    1.1    0.9;
    1896    1    -0    -0    0    1.18    0    1.02090651    -5.95246307    380    5    1.1    0.9;
    1910    1    -0    0    0    2.68    0    1.04924309    -6.63769913    220    5    1.1    0.9;
    1914    2    0    0    0    0    0    1.035636    -20.9055006    220    5    1.1    0.9;
    1917    1    197.5    -31    0    17.34    0    1.04917843    -25.1953995    220    5    1.1    0.9;
    1923    1    192.11    45.5    0    68.04    0    1.00136739    -11.6423003    380    5    1.1    0.9;
    1940    1    0    0    0    1.19    0    1.03553744    -18.1107373    220    5    1.1    0.9;
    1959    2    0    0    0    0    0    1.064692    -10.6788338    220    5    1.1    0.9;
    1965    1    248.7    8.1    0    12.46    0    1.06629193    -49.8244272    220    5    1.1    0.9;
    1973    1    210.1    66.2    0    59.36    0    1.07333284    -26.3367983    220    5    1.1    0.9;
    1979    1    0    0    0    0.14    0    1.07411409    -33.6602463    220    5    1.1    0.9;
    1980    1    177.3    36.4    0    0.7    0    1.04069986    -21.4535014    220    5    1.1    0.9;
    1998    1    25.73    7.3    0    2.82    0    1.03314625    -20.1666411    220    5    1.1    0.9;
    2012    1    41.45    4.9    0    18.43    0    1.03835961    -18.7007057    220    5    1.1    0.9;
    2019    1    72.08    21.3    0    7.19    0    1.04424566    -21.1104767    220    5    1.1    0.9;
    2020    1    0    0    0    9.98    0    1.04976875    -24.156554    220    5    1.1    0.9;