function mpc = case3012wp_res
%CASE3012WP_RES

%% MATPOWER Case Format : Version 2
mpc.version = '2';

%%-----  Power Flow Data  -----%%
%% system MVA base
mpc.baseMVA = 100;

%% bus data
%    bus_i    type    Pd    Qd    Gs    Bs    area    Vm    Va    baseKV    zone    Vmax    Vmin
mpc.bus = [
    1    1    0    0    0    0    1    1.10679219    -0.345441905    220    1    1.11    0.95;
    2    1    0    0    0    0    1    1.10786074    0.772941714    220    1    1.11    0.95;
    3    1    0    0    0    0    1    1.06594466    -31.8951534    220    1    1.11    0.95;
    4    1    0    0    0    0    1    1.06588363    -31.9041778    220    1    1.11    0.95;
    5    1    0    0    0    0    1    1.07700635    -34.1468477    220    1    1.11    0.95;
    6    1    0    0    0    0    1    1.07515412    -6.59812268    220    1    1.11    0.95;
    7    1    0    0    0    0    1    1.07512513    -6.59822354    220    1    1.11    0.95;
    8    1    0    0    0    0    1    1.09029671    -19.3763371    220    1    1.11    0.95;
    9    1    0    0    0    0    1    1.09054406    -19.3598836    220    1    1.11    0.95;
    10    1    0    0    0    0    1    1.10993794    -22.8101313    220    1    1.11    0.95;
    11    1    0    0    0    0    1    1.02524493    -14.1630483    400    1    1.05    0.95;
    12    1    0    0    0    0    1    1.02532923    -14.154264    400    1    1.05    0.95;
    13    1    0    0    0    0    1    1.01153019    -18.6051419    400    1    1.05    0.95;
    14    1    0    0    0    0    1    1.04274016    -19.1865467    220    1    1.11    0.95;
    15    1    0    0    0    0    1    1.04294151    -19.1832461    220    1    1.11    0.95;
    16    1    0    0    0    0    1    1.04295835    -19.1734333    220    1    1.11    0.95;
    17    1    0    0    0    0    1    1.03123683    -23.6448836    220    1    1.11    0.95;
    18    1    0    0    0    0    1    1.03087494    -23.2682595    220    1    1.11    0.95;
    19    1    0    0    0    0    1    1.02640679    -12.4702013    400    1    1.05    0.95;
    20    1    0    0    0    0    1    1.02645503    -12.460101    400    1    1.05    0.95;
    21    1    0    0    0    0    1    1.02192181    -22.3124711    400    1    1.05    0.95;
    22    1    0    0    0    0    1    1.01547657    -18.337795    400    1    1.05    0.95;
    23    1    0    0    0    0    1    1.01547657    -18.337795    400    1    1.05    0.95;
    24    2    10.05    20.1    0    0    1    1.08673    -26.2779122    220    1    1.11    0.95;
    25    2    10.05    20.1    0    0    1    1.08668    -26.277726    220    1    1.11    0.95;
    26    1    0    0    0    0    1    1.0846715    -5.5966093    220    1    1.11    0.95;
    27    1    0    0    0    0    1    1.08479097    -5.60958797    220    1    1.11    0.95;
    28    1    0    0    0    0    1    1.03988996    -21.2543289    220    1    1.11    0.95;
    29    1    0    0    0    0    1    1.03984007    -21.2520767    220    1    1.11    0.95;
    30    1    0    0    0    0    1    1.04228687    -18.6953098    220    1    1.11    0.95;
    31    1    0    0    0    0    1    1.04222627    -18.7081434    220    1    1.11    0.95;
    32    1    0    0    0    0    1    1.0844035    -3.24893748    220    1    1.11    0.95;
    33    1    0    0    0    0    1    1.08430354    -3.27269355    220    1    1.11    0.95;
    34    1    0    0    0    0    1    1.01700073    -16.3099257    400    1    1.05    0.95;
    35    1    0    0    0    0    1    1.01696761    -16.3150274    400    1    1.05    0.95;
    36    1    0    0    0    0    1    1.00670258    -19.5430154    400    1    1.05    0.95;
    37    3    48.68    86.21    0    0    1    1.11    0    220    1    1.11    0.95;
    38    2    54.54    89.93    0    0    1    1.11    1.0662481    220    1    1.11    0.95;
    39    2    20.1    40.19    0    0    1    1.11    1.0589989    220    1    1.11    0.95;
    40    2    60.29    120.57    0    0    1    1.04749    -0.512977092    400    1    1.05    0.95;
    41    2    60.29    120.57    0    0    1    1.04746    -0.506832935    400    1    1.05    0.95;
    42    1    0    0    0    0    1    1.03172833    -20.500823    220    1    1.11    0.95;
    43    1    0    0    0    0    1    1.03162839    -20.5045077    220    1    1.11    0.95;
    44    1    0    0    0    0    1    1.04994085    -2.19548655    400    1    1.05    0.95;
    45    1    0    0    0    0    1    1.04992576    -2.19904709    400    1    1.05    0.95;
    46    1    0    0    0    0    1    1.03926817    -19.5402651    220    1    1.11    0.95;
    47    1    0    0    0    0    1    1.05991502    -9.00957031    220    1    1.11    0.95;
    48    1    0    0    0    0    1    1.05993238    -9.02759988    220    1    1.11    0.95;
    49    1    0    0    0    0    1    1.09288885    -13.1519232    220    2    1.11    0.95;
    50    1    0    0    0    0    1    1.0911408    -12.7395585    220    2    1.11    0.95;
    51    1    0    0    0    0    1    1.10363553    -11.0991443    220    2    1.11    0.95;
    52    1    0    0    0    0    1    1.10360933    -11.1035442    220    2    1.11    0.95;
    53    1    0    0    0    0    1    1.07222891    -15.1501676    220    2    1.11    0.95;
    54    1    3.23    1    0    0    1    1.09938805    -9.80059775    220    2    1.11    0.95;
    55    1    0    0    0    0    1    1.09945936    -9.80001272    220    2    1.11    0.95;
    56    1    0    0    0    0    1    1.03595656    -9.9752748    400    2    1.05    0.95;
    57    2    26.12    60.29    0    0    1    1.10173    -11.2351055    220    2    1.11    0.95;
    58    2    54.26    120.57    0    0    1    1.10171    -11.2354941    220    2    1.11    0.95;
    59    2    13.06    30.14    0    0    1    1.10172    -11.2365078    220    2    1.11    0.95;
    60    2    26.12    50.24    0    0    1    1.05    -9.36799525    400    2    1.05    0.95;
    61    2    26.12    50.24    0    0    1    1.05    -9.36122213    400    2    1.05    0.95;
    62    1    0    0    0    0    1    1.09398465    -10.5387048    220    2    1.11    0.95;
    63    1    0    0    0    0    1    1.04484249    -13.9006711    400    2    1.05    0.95;
    64    1    0    0    0    0    1    1.04484044    -13.9018431    400    2    1.05    0.95;
    65    1    0    0    0    0    1    1.04779816    -10.9188091    400    2    1.05    0.95;
    66    1    0    0    0    0    1    1.07835213    -13.4246025    220    2    1.11    0.95;
    67    1    0    0    0    0    1    1.07834392    -13.4194947    220    2    1.11    0.95;
    68    1    0    0    0    0    1    1.04570361    -10.5856287    400    2    1.05    0.95;
    69    1    0    0    0    0    1    1.04568959    -10.5876626    400    2    1.05    0.95;
    70    2    13.06    30.14    0    0    1    1.10839    -9.83720642    220    2    1.11    0.95;
    71    2    13.06    30.14    0    0    1    1.10837    -9.83885888    220    2    1.11    0.95;
    72    2    13.06    30.14    0    0    1    1.04326    -10.2040444    400    2    1.05    0.95;
    73    2    26.12    60.29    0    0    1    1.04328    -10.2055066    400    2    1.05    0.95;
    74    2    149.71    60.29    0    0    1    1.09864    -12.191133    220    2    1.11    0.95;
    75    1    29.14    10.05    0    0    1    1.09862062    -12.1928204    220    2    1.11    0.95;
    76    1    0    0    0    0    1    1.09645238    -10.7160143    220    2    1.11    0.95;
    77    1    0    0    0    0    1    1.09645319    -10.7122265    220    2    1.11    0.95;
    78    1    0    0    0    0    1    1.09743101    -12.139536    220    2    1.11    0.95;
    79    1    0    0    0    0    1    1.097445    -12.143401    220    2    1.11    0.95;
    80    1    0    0    0    0    1    1.04995173    -11.5266931    400    2    1.05    0.95;
    81    1    0    0    0    0    1    1.04991792    -11.5383077    400    2    1.05    0.95;
    82    1    0    0    0    0    1    1.09998633    -12.2199472    220    2    1.11    0.95;
    83    1    0    0    0    0    1    1.10064473    -12.0920425    220    2    1.11    0.95;
    84    1    0    0    0    0    1    1.07983685    -12.2452049    220    2    1.11    0.95;
    85    1    0    0    0    0    1    1.09322366    -4.33120411    220    3    1.11    0.95;
    86    1    9.35    0    0    0    1    1.09454276    -9.15272443    220    3    1.11    0.95;
    87    1    8.18    0    0    0    1    1.09455976    -9.15297136    220    3    1.11    0.95;
    88    1    0    0    0    0    1    1.09957879    -2.95649149    220    3    1.11    0.95;
    89    1    0    0    0    0    1    1.0997012    -2.94365881    220    3    1.11    0.95;
    90    1    0    0    0    0    1    1.10941472    -2.54204481    220    3    1.11    0.95;
    91    1    0    0    0    0    1    1.10943432    -2.54431923    220    3    1.11    0.95;
    92    1    0    0    0    0    1    1.07462876    -4.33421    220    3    1.11    0.95;
    93    1    0    0    0    0    1    1.07438096    -4.34098643    220    3    1.11    0.95;
    94    2    28.13    70.33    0    0    1    1.10879    -2.11119931    220    3    1.11    0.95;
    95    2    42.2    103.49    0    0    1    1.11    -1.63692994    220    3    1.11    0.95;
    96    1    7.72    -24.99    0    0    1    1.09586338    -3.09541261    220    3    1.11    0.95;
    97    1    0    0    0    0    1    1.09584707    -3.09641703    220    3    1.11    0.95;
    98    2    32.15    142.68    0    0    1    1.05    -4.70517239    400    3    1.05    0.95;
    99    1    0    0    0    0    1    1.04990601    -4.73253608    400    3    1.05    0.95;
    100    1    0    0    0    0    1    1.05990942    -6.3082509    220    3    1.11    0.95;
    101    1    0    0    0    0    1    1.10845996    -2.04734996    220    3    1.11    0.95;
    102    1    0    0    0    0    1    1.10845773    -2.04460266    220    3    1.11    0.95;
    103    1    45.11    7.94    0    0    1    1.09614386    -4.10514441    220    3    1.11    0.95;
    104    1    0    0    0    0    1    1.09608546    -4.10989887    220    3    1.11    0.95;
    105    1    0    0    0    0    1    1.1042148    -1.89455031    220    3    1.11    0.95;
    106    1    0    0    0    0    1    1.10414946    -1.89676745    220    3    1.11    0.95;
    107    1    0    0    0    0    1    1.10030849    -3.6793224    220    3    1.11    0.95;
    108    1    0    0    0    0    1    1.10029469    -3.68620721    220    3    1.11    0.95;
    109    1    0    0    0    0    1    1.04332113    -2.2686398    400    3    1.05    0.95;
    110    1    0    0    0    0    1    1.04331986    -2.27024266    400    3    1.05    0.95;
    111    1    0    0    0    0    1    1.10684333    -1.74228277    220    3    1.11    0.95;
    112    1    0    0    0    0    1    1.1068559    -1.74096648    220    3    1.11    0.95;
    113    1    0    0    0    0    1    1.08104044    -3.70777372    220    3    1.11    0.95;
    114    1    0    0    0    0    1    1.08094663    -3.72081994    220    3    1.11    0.95;
    115    2    29.36    18.51    0    0    1    1.10086    -3.13919024    220    3    1.11    0.95;
    116    1    0    0    0    0    1    1.10082828    -3.15132818    220    3    1.11    0.95;
    117    1    0    0    0    0    1    1.09459948    -9.13371727    220    3    1.11    0.95;
    118    1    0    0    0    0    1    1.09459099    -9.13073985    220    3    1.11    0.95;
    119    1    0    0    0    0    1    1.06067196    -4.67087947    220    3    1.11    0.95;
    120    1    0    0    0    0    1    1.06064239    -4.67227541    220    3    1.11    0.95;
    121    2    0    0    0    0    1    1.1099803    -1.76111296    220    3    1.11    0.95;
    122    2    10.05    44.21    0    0    1    1.11    -1.75919031    220    3    1.11    0.95;
    123    2    7.03    18.09    0    0    1    1.10998    -1.81523346    220    3    1.11    0.95;
    124    2    8.04    21.1    0    0    1    1.11    -1.80382689    220    3    1.11    0.95;
    125    1    0    0    0    0    1    1.09605754    -4.51825005    220    3    1.11    0.95;
    126    1    71.54    7.94    0    0    1    1.09609536    -4.52661121    220    3    1.11    0.95;
    127    1    0    0    0    0    1    1.0790372    -4.94770476    220    3    1.11    0.95;
    128    1    0    0    0    0    1    1.08912235    -2.64793904    220    3    1.11    0.95;
    129    1    0    0    0    0    1    1.08916687    -2.65005659    220    3    1.11    0.95;
    130    1    0    0    0    0    1    1.09443232    -3.16189611    220    3    1.11    0.95;
    131    1    0    0    0    0    1    1.09453224    -3.15363522    220    3    1.11    0.95;
    132    1    0    0    0    0    1    1.04138569    -5.55244425    400    3    1.05    0.95;
    133    1    0    0    0    0    1    1.04138569    -5.55244425    400    3    1.05    0.95;
    134    2    0    0    0    0    1    1.10759155    -2.68919822    220    3    1.11    0.95;
    135    2    9.04    20.1    0    0    1    1.10756    -2.69168365    220    3    1.11    0.95;
    136    2    6.03    15.07    0    0    1    1.09273    -4.2167618    220    3    1.11    0.95;
    137    1    0    0    0    0    1    1.09274129    -4.22830117    220    3    1.11    0.95;
    138    1    0    0    0    0    1    1.04766795    -11.3591358    400    3    1.05    0.95;
    139    1    0    0    0    0    1    1.04769514    -11.361116    400    3    1.05    0.95;
    140    1    0    0    0    0    1    1.0498747    -6.08764621    400    3    1.05    0.95;
    141    1    0    0    0    0    1    1.04987297    -6.08578175    400    3    1.05    0.95;
    142    1    0    0    0    0    1    1.07645915    -5.20955996    220    3    1.11    0.95;
    143    1    0    0    0    0    1    1.07651704    -5.2070932    220    3    1.11    0.95;
    144    2    18.34    15.86    0    0    1    1.10995    -1.36278372    220    3    1.11    0.95;
    145    2    41.01    43.07    0    0    1    1.11    -1.33958434    220    3    1.11    0.95;
    146    2    28.13    66.31    0    0    1    1.03968    -4.60039815    400    3    1.05    0.95;
    147    1    0    0    0    0    1    1.03973088    -4.59974051    400    3    1.05    0.95;
    148    1    0    0    0    0    1    1.09482829    -4.20206255    220    3    1.11    0.95;
    149    1    0    0    0    0    1    1.09490363    -4.19521228    220    3    1.11    0.95;
    150    1    0    0    0    0    1    1.10973932    -1.82027661    220    3    1.11    0.95;
    151    1    0    0    0    0    1    1.09827818    -3.81911412    220    3    1.11    0.95;
    152    2    0    0    0    0    1    1.07466075    -4.33444232    220    3    1.11    0.95;
    153    2    0    0    0    0    1    1.07441284    -4.34121728    220    3    1.11    0.95;
    154    2    7.84    20.1    0    0    1    1.0886    -13.1248363    220    4    1.11    0.95;
    155    2    8.04    20.1    0    0    1    1.0886    -13.1369642    220    4    1.11    0.95;
    156    1    0    0    0    0    1    1.06347489    -14.8056384    220    4    1.11    0.95;
    157    1    0    0    0    0    1    1.06343922    -14.8070823    220    4    1.11    0.95;
    158    1    0    0    0    0    1    1.05485272    -16.5551619    220    4    1.11    0.95;
    159    1    0    0    0    0    1    1.0808757    -13.0973105    220    4    1.11    0.95;
    160    1    0    0    0    0    1    1.08079196    -13.1066696    220    4    1.11    0.95;
    161    1    0    0    0    0    1    1.02222084    -12.6715322    400    4    1.05    0.95;
    162    1    0    0    0    0    1    1.02218688    -12.6739865    400    4    1.05    0.95;
    163    1    0    0    0    0    1    1.0259174    -28.7482998    220    4    1.11    0.95;
    164    1    0    0    0    0    1    1.07704005    -35.7752276    220    4    1.11    0.95;
    165    1    0    0    0    0    1    1.07704005    -35.7752276    220    4    1.11    0.95;
    166    1    0    0    0    0    1    1.07161268    -31.2783982    220    4    1.11    0.95;
    167    1    0    0    0    0    1    1.07161268    -31.2783982    220    4    1.11    0.95;
    168    1    0    0    0    0    1    1.05423394    -16.7915684    220    4    1.11    0.95;
    169    2    0    0    0    0    1    1.08097278    -18.443002    220    4    1.11    0.95;
    170    2    0    0    0    0    1    1.08094469    -18.4578764    220    4    1.11    0.95;
    171    1    0    0    0    0    1    1.11000406    -15.2540333    220    4    1.11    0.95;
    172    2    12.06    30.14    0    0    1    1.10415    -33.6568507    220    4    1.11    0.95;
    173    2    9.39    2.43    0    0    1    1.1040913    -33.6571941    220    4    1.11    0.95;
    174    2    12.06    30.14    0    0    1    1.03614    -30.8202251    400    4    1.05    0.95;
    175    2    24.11    60.29    0    0    1    1.03615    -30.8162951    400    4    1.05    0.95;
    176    1    0    0    0    0    1    0.994618286    -27.6767411    220    4    1.11    0.95;
    177    1    0    0    0    0    1    0.994734659    -27.6852252    220    4    1.11    0.95;
    178    1    0    0    0    0    1    1.04824617    -23.0462107    220    4    1.11    0.95;
    179    1    0    0    0    0    1    1.04825586    -23.0504186    220    4    1.11    0.95;
    180    2    26.12    64.3    0    0    1    1.11    -9.33126816    220    4    1.11    0.95;
    181    2    26.12    64.3    0    0    1    1.11    -9.33926913    220    4    1.11    0.95;
    182    2    26.12    64.51    0    0    1    1.11    -9.31666415    220    4    1.11    0.95;
    183    2    26.12    64.51    0    0    1    1.0494    -8.67673686    400    4    1.05    0.95;
    184    1    0    0    0    0    1    1.04936755    -8.67819467    400    4    1.05    0.95;
    185    1    0    0    0    0    1    1.08069969    -35.8099285    220    4    1.11    0.95;
    186    1    0    0    0    0    1    1.08069969    -35.8099285    220    4    1.11    0.95;
    187    1    0    0    0    0    1    1.00789619    -13.7114376    400    4    1.05    0.95;
    188    1    0    0    0    0    1    0.978818563    -19.541219    400    4    1.05    0.95;
    189    1    0    0    0    0    1    1.02033633    -11.7233252    400    4    1.05    0.95;
    190    1    0    0    0    0    1    1.0203499    -11.7150952    400    4    1.05    0.95;
    191    2    12.06    30.14    0    0    1    1.08298    -18.6003886    220    4    1.11    0.95;
    192    2    14.66    30.65    0    0    1    1.08268    -18.6424062    220    4    1.11    0.95;
    193    2    38.18    64.3    0    0    1    1.03244    -12.015699    400    4    1.05    0.95;
    194    1    0    0    0    0    1    1.0140039    -35.3650614    220    4    1.11    0.95;
    195    1    0    0    0    0    1    1.01405425    -35.370091    220    4    1.11    0.95;
    196    1    0    0    0    0    1    1.07646617    -35.8599668    220    4    1.11    0.95;
    197    1    0    0    0    0    1    1.07647174    -35.8611017    220    4    1.11    0.95;
    198    1    0    0    0    0    1    1.02035899    -29.9311594    220    4    1.11    0.95;
    199    1    0    0    0    0    1    1.02033583    -29.9228442    220    4    1.11    0.95;
    200    1    0    0    0    0    1    0.980186156    -31.6131302    400    4    1.05    0.95;
    201    1    0    0    0    0    1    0.980186156    -31.6131302    400    4    1.05    0.95;
    202    1    0    0    0    0    1    1.01636749    -21.6265018    220    4    1.11    0.95;
    203    1    0    0    0    0    1    1.01636063    -21.6210819    220    4    1.11    0.95;
    204    1    0    0    0    0    1    1.01031602    -30.6751955    220    4    1.11    0.95;
    205    1    0    0    0    0    1    1.06365375    -14.3243109    220    4    1.11    0.95;
    206    1    0    0    0    0    1    1.06366857    -14.3367027    220    4    1.11    0.95;
    207    1    0    0    0    0    1    1.05528293    -12.6286382    220    4    1.11    0.95;
    208    2    3.14    1.51    0    0    1    1.06751    -21.5840921    220    4    1.11    0.95;
    209    1    0    0    0    0    1    1.00695958    -22.909583    220    4    1.11    0.95;
    210    1    0    0    0    0    1    1.00694191    -22.9010617    220    4    1.11    0.95;
    211    1    0    0    0    0    1    1.04366349    -27.9893514    220    5    1.11    0.95;
    212    1    0    0    0    0    1    1.10995978    -32.3580292    220    5    1.11    0.95;
    213    1    0    0    0    0    1    1.03202685    -31.2803019    400    5    1.05    0.95;
    214    1    0    0    0    0    1    1.03205823    -31.2813717    400    5    1.05    0.95;
    215    1    0    0    0    0    1    1.02319926    -29.249111    400    5    1.05    0.95;
    216    1    0    0    0    0    1    1.02320977    -29.2556146    400    5    1.05    0.95;
    217    1    0    0    0    0    1    1.02953943    -34.5398371    400    5    1.05    0.95;
    218    1    0    0    0    0    1    1.02343578    -33.1294272    220    5    1.11    0.95;
    219    1    0    0    0    0    1    1.02343809    -33.1351428    220    5    1.11    0.95;
    220    1    0    0    0    0    1    1.05466086    -28.1722582    220    5    1.11    0.95;
    221    1    0    0    0    0    1    1.05459532    -28.1761343    220    5    1.11    0.95;
    222    1    0    0    0    0    1    1.00557889    -25.4897428    400    5    1.05    0.95;
    223    1    0    0    0    0    1    1.00557889    -25.4897428    400    5    1.05    0.95;
    224    1    0    0    0    0    1    1.02900623    -31.2052156    400    5    1.05    0.95;
    225    1    0    0    0    0    1    1.05146934    -27.1017716    220    5    1.11    0.95;
    226    1    0    0    0    0    1    1.05148681    -27.0949415    220    5    1.11    0.95;
    227    1    0    0    0    0    1    1.07068668    -30.7949238    220    5    1.11    0.95;
    228    1    0    0    0    0    1    1.06029991    -31.4725873    220    5    1.11    0.95;
    229    1    0    0    0    0    1    1.02703125    -31.2507605    400    5    1.05    0.95;
    230    1    0    0    0    0    1    1.02699849    -31.2510559    400    5    1.05    0.95;
    231    1    0    0    0    0    1    1.04986535    -34.59663    400    5    1.05    0.95;
    232    1    0    0    0    0    1    1.0527755    -31.5509965    220    5    1.11    0.95;
    233    1    0    0    0    0    1    1.05286023    -31.5473573    220    5    1.11    0.95;
    234    1    0    0    0    70    1    1.03623989    -30.4924886    400    5    1.25    0.75;
    235    1    0    0    0    0    1    1.03623142    -30.4955834    400    5    1.05    0.95;
    236    1    0    0    0    0    1    1.02916498    -29.2988583    220    5    1.11    0.95;
    237    1    0    0    0    0    1    1.02911518    -29.2981244    220    5    1.11    0.95;
    238    1    0    0    0    0    1    1.03212589    -27.3005656    220    5    1.11    0.95;
    239    1    0    0    0    0    1    1.03205009    -27.3159859    220    5    1.11    0.95;
    240    2    2.01    40.19    0    0    1    1.02222    -28.549432    400    5    1.05    0.95;
    241    2    5.55    30.14    0    0    1    1.02222    -28.5463484    400    5    1.05    0.95;
    242    1    0    0    0    0    1    1.06855802    -33.5713051    220    5    1.11    0.95;
    243    1    0    0    0    0    1    1.0686704    -33.5658486    220    5    1.11    0.95;
    244    2    0    0    0    0    0    1.11    -3.2981984    220    0    1.11    0.95;
    245    1    9.94    2.01    0    0    1    1.05934776    -28.5681386    110    1    1.12    0.95;
    246    1    8.89    0    0    0    1    1.06824964    -36.3264046    110    1    1.12    0.95;
    247    1    8.89    0    0    0    1    1.0681313    -36.3177814    110    1    1.12    0.95;
    248    1    6.09    1    0    0    1    1.1117716    -22.2766242    110    1    1.12    0.95;
    249    1    6.09    2.01    0    0    1    1.11183003    -22.3007159    110    1    1.12    0.95;
    250    1    2.94    2.51    0    0    1    1.03629919    -27.1632552    110    1    1.12    0.95;
    251    1    6.29    5.83    0    0    1    1.03625321    -27.1658216    110    1    1.12    0.95;
    252    1    5.18    1.31    0    0    1    1.08932919    -2.80593747    110    1    1.12    0.95;
    253    1    6.2    1    0    0    1    1.07840107    -3.68355264    110    1    1.12    0.95;
    254    2    -11.53    119.74    0    0    1    1.10528    -25.4219119    110    1    1.12    0.95;
    255    1    23.02    2.01    0    0    1    1.10542229    -25.6169364    110    1    1.12    0.95;
    256    1    14.65    1.51    0    0    1    1.10653345    -25.8264514    110    1    1.12    0.95;
    257    1    16.74    0    0    0    1    1.10634187    -25.9763191    110    1    1.12    0.95;
    258    1    26.16    3.01    0    0    1    1.10486133    -26.1197276    110    1    1.12    0.95;
    259    1    11.51    2.01    0    0    1    1.10510947    -25.5973181    110    1    1.12    0.95;
    260    1    5.23    1    0    0    1    1.10462642    -26.0599828    110    1    1.12    0.95;
    261    1    5.23    1    0    0    1    1.10455152    -26.0383203    110    1    1.12    0.95;
    262    1    0    0    0    0    1    1.10646952    -26.0789454    110    1    1.12    0.95;
    263    1    7.72    1.51    0    0    1    1.09898194    -25.3867414    110    1    1.12    0.95;
    264    1    5.59    1    0    0    1    1.09905592    -25.3806258    110    1    1.12    0.95;
    265    1    5.05    0.5    0    0    1    1.10765812    -24.5901932    110    1    1.12    0.95;
    266    1    5.05    0.5    0    0    1    1.10758657    -24.612619    110    1    1.12    0.95;
    267    2    0.06    0    0    0    1    1.05826    -19.4556055    110    1    1.12    0.95;
    268    2    10.87    2.51    0    0    1    1.07506    -11.376592    110    1    1.12    0.95;
    269    1    20.71    5.63    0    0    1    1.11072827    -24.3313127    110    1    1.12    0.95;
    270    1    0.91    0.4    0    0    1    1.09071351    -5.23764454    110    1    1.12    0.95;
    271    1    1.21    -0.9    0    0    1    1.08717723    -1.06914084    110    1    1.12    0.95;
    272    1    5.66    0.3    0    0    1    1.09819174    -25.8118319    110    1    1.12    0.95;
    273    1    5.23    0.2    0    0    1    1.09986862    -33.3552746    110    1    1.12    0.95;
    274    1    24.07    2.01    0    0    1    1.08437063    -27.3730806    110    1    1.12    0.95;
    275    1    4.17    2.11    0    0    1    1.10907288    -9.93439964    110    1    1.12    0.95;
    276    1    8.33    1.51    0    0    1    1.05926401    -15.0753724    110    1    1.12    0.95;
    277    1    3.15    0.5    0    0    1    1.11940278    -24.4906184    110    1    1.12    0.95;
    278    2    3.86    1.61    0    0    1    1.11534332    -9.56844701    110    1    1.12    0.95;
    279    2    3.86    1.61    0    0    1    1.11983086    -10.9947196    110    1    1.12    0.95;
    280    1    24.36    6.53    0    0    1    1.09714215    -24.8307263    110    1    1.12    0.95;
    281    1    10.36    2.21    0    0    1    1.07956591    -3.54592384    110    1    1.12    0.95;
    282    1    6.09    0.5    0    0    1    1.07426098    -13.955819    110    1    1.12    0.95;
    283    1    3.25    0.2    0    0    1    1.07424782    -13.9495513    110    1    1.12    0.95;
    284    1    13.51    7.03    0    0    1    1.07458484    -2.68294522    110    1    1.12    0.95;
    285    1    20.72    11.55    0    0    1    1.07449146    -2.70394267    110    1    1.12    0.95;
    286    1    10.31    0.4    0    0    1    1.08090889    -29.8724404    110    1    1.12    0.95;
    287    1    12.6    4.52    0    0    1    1.1110142    -9.33544615    110    1    1.12    0.95;
    288    1    9.6    0.8    0    0    1    1.08013279    -30.1370584    110    1    1.12    0.95;
    289    1    0    0    0    0    1    1.08013129    -30.141493    110    1    1.12    0.95;
    290    1    6.28    0.3    0    0    1    1.08581284    -30.1711944    110    1    1.12    0.95;
    291    1    5.23    0    0    0    1    1.07944745    -30.4054002    110    1    1.12    0.95;
    292    1    4.19    0    0    0    1    1.07939859    -30.409837    110    1    1.12    0.95;
    293    1    1.05    0    0    0    1    1.08839788    -28.8817871    110    1    1.12    0.95;
    294    1    0    0    0    0    1    1.08844856    -28.9068519    110    1    1.12    0.95;
    295    2    0.23    0.4    0    0    1    1.09445    -26.8011926    110    1    1.12    0.95;
    296    1    0    0    0    0    1    1.09449195    -26.8222679    110    1    1.12    0.95;
    297    1    9.42    2.01    0    0    1    1.06806393    -33.7705997    110    1    1.12    0.95;
    298    1    0.3    0.1    0    0    1    1.10386263    -5.95619167    110    1    1.12    0.95;
    299    1    0.3    0.1    0    0    1    1.10020342    -5.87905318    110    1    1.12    0.95;
    300    1    13.51    7.64    0    0    1    1.10164771    -6.03511441    110    1    1.12    0.95;
    301    1    0.51    0.2    0    0    1    1.10017108    -5.88063744    110    1    1.12    0.95;
    302    1    7.78    0.1    0    0    1    1.07850163    -32.1873543    110    1    1.12    0.95;
    303    1    8.99    0.1    0    0    1    1.0785348    -32.1999116    110    1    1.12    0.95;
    304    1    6.71    2.21    0    0    1    1.111504    -10.3309178    110    1    1.12    0.95;
    305    1    6.7    0.6    0    0    1    1.10274712    -6.2104061    110    1    1.12    0.95;
    306    1    3.66    0.3    0    0    1    1.10274822    -6.19129808    110    1    1.12    0.95;