function mpc = case14_res
%CASE14_RES

%% MATPOWER Case Format : Version 2
mpc.version = '2';

%%-----  Power Flow Data  -----%%
%% system MVA base
mpc.baseMVA = 100;

%% bus data
%	bus_i	type	Pd	Qd	Gs	Bs	area	Vm	Va	baseKV	zone	Vmax	Vmin
mpc.bus = [
	1	3	0	0	0	0	1	1.06	0	0	1	1.06	0.94;
	2	2	21.7	12.7	0	0	1	1.045	-4.98258914	0	1	1.06	0.94;
	3	2	94.2	19	0	0	1	1.01	-12.7250999	0	1	1.06	0.94;
	4	1	47.8	-3.9	0	0	1	1.01767085	-10.3129011	0	1	1.06	0.94;
	5	1	7.6	1.6	0	0	1	1.01951386	-8.7738539	0	1	1.06	0.94;
	6	2	11.2	7.5	0	0	1	1.07	-14.2209465	0	1	1.06	0.94;
	7	1	0	0	0	0	1	1.06151953	-13.3596274	0	1	1.06	0.94;
	8	2	0	0	0	0	1	1.09	-13.3596274	0	1	1.06	0.94;
	9	1	29.5	16.6	0	19	1	1.05593172	-14.9385213	0	1	1.06	0.94;
	10	1	9	5.8	0	0	1	1.05098463	-15.0972885	0	1	1.06	0.94;
	11	1	3.5	1.8	0	0	1	1.05690652	-14.790622	0	1	1.06	0.94;
	12	1	6.1	1.6	0	0	1	1.05518856	-15.0755845	0	1	1.06	0.94;
	13	1	13.5	5.8	0	0	1	1.05038171	-15.1562763	0	1	1.06	0.94;
	14	1	14.9	5	0	0	1	1.03552995	-16.0336445	0	1	1.06	0.94;
];

%% generator data
%	bus	Pg	Qg	Qmax	Qmin	Vg	mBase	status	Pmax	Pmin	Pc1	Pc2	Qc1min	Qc1max	Qc2min	Qc2max	ramp_agc	ramp_10	ramp_30	ramp_q	apf
mpc.gen = [
	1	232.393272	-16.5493005	10	0	1.06	100	1	332.4	0	0	0	0	0	0	0	0	0	0	0	0;
	2	40	43.5571001	50	-40	1.045	100	1	140	0	0	0	0	0	0	0	0	0	0	0	0;
	3	0	25.0753485	40	0	1.01	100	1	100	0	0	0	0	0	0	0	0	0	0	0	0;
	6	0	12.7309444	24	-6	1.07	100	1	100	0	0	0	0	0	0	0	0	0	0	0	0;
	8	0	17.6234514	24	-6	1.09	100	1	100	0	0	0	0	0	0	0	0	0	0	0	0;
];

%% branch data
%	fbus	tbus	r	x	b	rateA	rateB	rateC	ratio	angle	status	angmin	angmax	Pf	Qf	Pt	Qt
mpc.branch = [
	1	2	0.01938	0.05917	0.0528	0	0	0	0	0	1	-360	360	156.8829	-20.4043	-152.5853	27.6762;
	1	5	0.05403	0.22304	0.0492	0	0	0	0	0	1	-360	360	75.5104	3.8550	-72.7475	2.2294;
	2	3	0.04699	0.19797	0.0438	0	0	0	0	0	1	-360	360	73.2376	3.5602	-70.9143	1.6022;
	2	4	0.05811	0.17632	0.034	0	0	0	0	0	1	-360	360	56.1315	-1.5504	-54.4548	3.0207;
	2	5	0.05695	0.17388	0.0346	0	0	0	0	0	1	-360	360	41.5162	1.1710	-40.6125	-2.0990;
	3	4	0.06701	0.17103	0.0128	0	0	0	0	0	1	-360	360	-23.2857	4.4731	23.6591	-4.8357;
	4	5	0.01335	0.04211	0	0	0	0	0	0	1	-360	360	-61.1582	15.8236	61.6727	-14.2010;
	4	7	0	0.20912	0	0	0	0	0.978	0	1	-360	360	28.0742	-9.6811	-28.0742	11.3843;
	4	9	0	0.55618	0	0	0	0	0.969	0	1	-360	360	16.0798	-0.4276	-16.0798	1.7323;
	5	6	0	0.25202	0	0	0	0	0.932	0	1	-360	360	44.0873	12.4707	-44.0873	-8.0495;
	6	11	0.09498	0.1989	0	0	0	0	0	0	1	-360	360	7.3533	3.5605	-7.2979	-3.4445;
	6	12	0.12291	0.25581	0	0	0	0	0	0	1	-360	360	7.7861	2.5034	-7.7143	-2.3540;
	6	13	0.06615	0.13027	0	0	0	0	0	0	1	-360	360	17.7480	7.2166	-17.5359	-6.7989;
	7	8	0	0.17615	0	0	0	0	0	0	1	-360	360	-0.0000	-17.1630	0.0000	17.6235;
	7	9	0	0.11001	0	0	0	0	0	0	1	-360	360	28.0742	5.7787	-28.0742	-4.9766;
	9	10	0.03181	0.0845	0	0	0	0	0	0	1	-360	360	5.2276	4.2191	-5.2147	-4.1849;
	9	14	0.12711	0.27038	0	0	0	0	0	0	1	-360	360	9.4264	3.6100	-9.3102	-3.3629;
	10	11	0.08205	0.19207	0	0	0	0	0	0	1	-360	360	-3.7853	-1.6151	3.7979	1.6445;
	12	13	0.22092	0.19988	0	0	0	0	0	0	1	-360	360	1.6143	0.7540	-1.6080	-0.7483;
	13	14	0.17093	0.34802	0	0	0	0	0	0	1	-360	360	5.6439	1.7472	-5.5898	-1.6371;
];

%%-----  OPF Data  -----%%
%% generator cost data
%	1	startup	shutdown	n	x1	y1	...	xn	yn
%	2	startup	shutdown	n	c(n-1)	...	c0
mpc.gencost = [
	2	0	0	3	0.0430292599	20	0;
	2	0	0	3	0.25	20	0;
	2	0	0	3	0.01	40	0;
	2	0	0	3	0.01	40	0;
	2	0	0	3	0.01	40	0;
];

%% bus names
mpc.bus_name = {
	'Bus 1     HV';
	'Bus 2     HV';
	'Bus 3     HV';
	'Bus 4     HV';
	'Bus 5     HV';
	'Bus 6     LV';
	'Bus 7     ZV';
	'Bus 8     TV';
	'Bus 9     LV';
	'Bus 10    LV';
	'Bus 11    LV';
	'Bus 12    LV';
	'Bus 13    LV';
	'Bus 14    LV';
};
