function mpc = case3120sp_resqlim
%CASE3120SP_RESQLIM

%% MATPOWER Case Format : Version 2
mpc.version = '2';

%%-----  Power Flow Data  -----%%
%% system MVA base
mpc.baseMVA = 100;

%% bus data
%	bus_i	type	Pd	Qd	Gs	Bs	area	Vm	Va	baseKV	zone	Vmax	Vmin
mpc.bus = [
	1	1	0	0	0	0	1	0.616988639	38.669354	220	1	1.11	0.95;
	2	1	0	0	0	0	1	3.42839733	87.6275545	220	1	1.11	0.95;
	3	1	0	0	0	0	1	0.00156394623	-137.119028	220	1	1.11	0.95;
	4	1	0	0	0	0	1	0.0364084819	-96.6619823	220	1	1.11	0.95;
	5	1	0	0	0	0	1	1.33902147	105.24053	220	1	1.11	0.95;
	6	1	0	0	0	0	1	0.858482684	-52.3272006	220	1	1.11	0.95;
	7	1	0	0	0	0	1	0.353969308	-143.824469	220	1	1.11	0.95;
	8	1	0	0	0	0	1	0.0068058411	-105.58386	220	1	1.11	0.95;
	9	1	0	0	0	0	1	0.0108201673	76.5444912	220	1	1.11	0.95;
	10	1	0	0	0	0	1	0.0154666867	-30.0073242	220	1	1.11	0.95;
	11	1	0	0	0	0	1	0.0712420742	-143.322297	400	1	1.05	0.95;
	12	1	0	0	0	0	1	0.00533353539	-151.56976	400	1	1.05	0.95;
	13	1	0	0	0	0	1	15.081726	26.4997163	400	1	1.05	0.95;
	14	1	0	0	0	0	1	0.276498769	182.440243	220	1	1.11	0.95;
	15	1	0	0	0	0	1	0.31216672	202.259771	220	1	1.11	0.95;
	16	1	0	0	0	0	1	0.57886142	-63.0304901	220	1	1.11	0.95;
	17	1	0	0	0	0	1	0.724754011	129.932544	220	1	1.11	0.95;
	18	1	0	0	0	0	1	0.00268242773	-74.6992755	400	1	1.05	0.95;
	19	1	0	0	0	0	1	0.00113711105	48.6348244	400	1	1.05	0.95;
	20	1	0	0	0	0	1	0.0366730864	49.9971147	400	1	1.05	0.95;
	21	1	0	0	0	0	1	0.0458436228	160.795231	400	1	1.05	0.95;
	22	1	10	20	0	0	1	0.0968467094	-87.4432964	220	1	1.11	0.95;
	23	1	10	20	0	0	1	0.0542322874	125.186196	220	1	1.11	0.95;
	24	1	0	0	0	0	1	0.395051679	-77.1665237	220	1	1.11	0.95;
	25	1	0	0	0	0	1	1.70563577	190.685121	220	1	1.11	0.95;
	26	1	0	0	0	0	1	0.0168140465	122.892833	220	1	1.11	0.95;
	27	1	0	0	0	0	1	0.0980828034	-41.3793895	220	1	1.11	0.95;
	28	1	0	0	0	0	1	0.000238468161	-139.714823	220	1	1.11	0.95;
	29	1	0	0	0	0	1	0.051647947	0.832114518	220	1	1.11	0.95;
	30	1	0	0	0	0	1	0.261748659	-140.572152	220	1	1.11	0.95;
	31	1	0	0	0	0	1	2.3100716e-06	58.5978642	220	1	1.11	0.95;
	32	1	0	0	0	0	1	0.116387208	-133.015198	400	1	1.05	0.95;
	33	1	0	0	0	0	1	0.0180766161	-33.305293	400	1	1.05	0.95;
	34	1	0	0	0	0	1	0.00611412369	-143.251977	400	1	1.05	0.95;
	35	1	32.16	52.07	0	0	1	11.9408659	-110.252169	220	1	1.11	0.95;
	36	1	46.36	92.07	0	0	1	1.03595059	-147.359559	220	1	1.11	0.95;
	37	1	60	120	0	0	1	0.14151379	0	400	1	1.05	0.95;
	38	1	60	120	0	0	1	0.898999397	53.0482731	400	1	1.05	0.95;
	39	1	0	0	0	0	1	0.0119756346	-125.81581	220	1	1.11	0.95;
	40	1	0	0	0	0	1	0.0485944255	-120.247172	220	1	1.11	0.95;
	41	1	0	0	0	0	1	0.619290546	-95.2999921	400	1	1.05	0.95;
	42	1	0	0	0	0	1	0.0310631596	175.257849	400	1	1.05	0.95;
	43	1	0	0	0	0	1	1.14234345	155.347353	220	1	1.11	0.95;
	44	1	0	0	0	0	1	0.123505631	45.4873578	400	1	1.05	0.95;
	45	1	0	0	0	0	1	0.544973679	-13.2446465	220	1	1.11	0.95;
	46	1	0	0	0	0	1	0.653502265	195.029544	220	1	1.11	0.95;
	47	1	0	0	0	0	1	4.06811893	-81.3973287	220	2	1.11	0.95;
	48	1	0	0	0	0	1	11.9728788	179.407642	220	2	1.11	0.95;
	49	1	0	0	0	0	1	0.010397946	97.7002301	220	2	1.11	0.95;
	50	1	0	0	0	0	1	0.762020329	-57.1121391	220	2	1.11	0.95;
	51	1	0	0	0	0	1	0.548430326	89.5069075	220	2	1.11	0.95;
	52	1	3.97	1	0	0	1	2.18779599	-129.479139	220	2	1.11	0.95;
	53	1	0	0	0	0	1	1.43843913	-62.4463671	220	2	1.11	0.95;
	54	1	0	0	0	0	1	6.75421385	163.067143	400	2	1.05	0.95;
	55	1	13	30	0	0	1	0.164207735	-141.694416	220	2	1.11	0.95;
	56	1	39.35	90.07	0	0	1	0.120467329	-38.1543578	220	2	1.11	0.95;
	57	1	26	60	0	0	1	0.160414036	166.871633	220	2	1.11	0.95;
	58	1	26	50	0	0	1	0.0819288457	-29.8218357	400	2	1.05	0.95;
	59	1	26	50	0	0	1	0.571693813	50.7154494	400	2	1.05	0.95;
	60	1	0	0	0	0	1	13.0642265	-33.9564335	220	2	1.11	0.95;
	61	1	0	0	0	0	1	0.0883201208	-13.4164943	400	2	1.05	0.95;
	62	1	0	0	0	0	1	0.717909114	-32.6888173	400	2	1.05	0.95;
	63	1	0	0	0	0	1	2.07355648	-97.4880041	400	2	1.05	0.95;
	64	1	0	0	0	0	1	0.220236774	-87.9349642	220	2	1.11	0.95;
	65	1	0	0	0	0	1	0.0207089307	-5.7866025	220	2	1.11	0.95;
	66	1	0	0	0	0	1	0.0216064494	-154.613112	400	2	1.05	0.95;
	67	1	0	0	0	0	1	0.00516583368	-24.3630317	400	2	1.05	0.95;
	68	1	13	30	0	0	1	0.114921	119.229902	220	2	1.11	0.95;
	69	1	26	60	0	0	1	0.180924293	137.527199	220	2	1.11	0.95;
	70	2	0	2.25	0	0	1	0.101268274	184.98841	400	2	1.05	0.95;
	71	1	26	60	0	0	1	0.705517593	189.672101	400	2	1.05	0.95;
	72	1	0	0	0	0	1	0.000290059071	88.9269624	220	2	1.11	0.95;
	73	1	0	0	0	0	1	0.168415168	135.484193	220	2	1.11	0.95;
	74	1	0	0	0	0	1	1.24523608	-17.7518604	220	2	1.11	0.95;
	75	1	0	0	0	0	1	1.22923925	-21.2150694	220	2	1.11	0.95;
	76	1	0	0	0	0	1	0.0284695502	-15.3765713	220	2	1.11	0.95;
	77	1	0	0	0	0	1	0.109187985	102.273634	220	2	1.11	0.95;
	78	1	0	0	0	0	1	6.66997993	44.4542273	400	2	1.05	0.95;
	79	1	0	0	0	0	1	6.84682451	-128.584808	400	2	1.05	0.95;
	80	1	0	0	0	0	1	6.23868261	-91.0491727	220	2	1.11	0.95;
	81	1	0	0	0	0	1	4.70883309	-153.477216	220	2	1.11	0.95;
	82	1	0	0	0	0	1	1.3449774	-65.489823	220	2	1.11	0.95;
	83	1	0	0	0	0	1	6.72473031	156.256872	220	3	1.11	0.95;
	84	1	6.41	2.01	0	0	1	9.11173426e-05	-19.5694631	220	3	1.11	0.95;
	85	1	13.89	5.02	0	0	1	0.0456597896	-129.247391	220	3	1.11	0.95;
	86	1	0	0	0	0	1	4.2160462e-05	134.920571	220	3	1.11	0.95;
	87	1	0	0	0	0	1	0.122809519	101.081166	220	3	1.11	0.95;
	88	1	0	0	0	0	1	0.0714975755	143.570687	220	3	1.11	0.95;
	89	1	0	0	0	0	1	0.0099115118	-24.1674638	220	3	1.11	0.95;
	90	1	0	0	0	0	1	0.121713138	-49.0388849	220	3	1.11	0.95;
	91	1	0	0	0	0	1	0.000773976574	80.5919171	220	3	1.11	0.95;
	92	1	28	70	0	0	1	0.752987723	-0.135278239	220	3	1.11	0.95;
	93	1	28	68	0	0	1	1.22630294	-19.8375759	220	3	1.11	0.95;
	94	1	2.78	1.91	0	0	1	0.0194824438	-18.4629791	220	3	1.11	0.95;
	95	1	0	0	0	0	1	0.0296035658	170.378957	220	3	1.11	0.95;
	96	1	32	142	0	0	1	0.2601848	5.89834362	400	3	1.05	0.95;
	97	1	0	0	0	0	1	0.207589416	80.1372231	400	3	1.05	0.95;
	98	1	0	0	0	0	1	2.33565434	80.4605473	220	3	1.11	0.95;
	99	1	0	0	0	0	1	0.214986555	21.0906008	220	3	1.11	0.95;
	100	1	0	0	0	0	1	0.0829182399	173.280093	220	3	1.11	0.95;
	101	1	38.8	-2.7	0	0	1	0.146210451	163.985357	220	3	1.11	0.95;
	102	1	0	0	0	0	1	0.377431396	108.684629	220	3	1.11	0.95;
	103	1	0	0	0	0	1	0.207093131	-17.9341117	220	3	1.11	0.95;
	104	1	0	0	0	0	1	0.0456979012	24.2361698	220	3	1.11	0.95;
	105	1	0	0	0	0	1	1.39114824	-78.8471589	220	3	1.11	0.95;
	106	1	0	0	0	0	1	1.25873781	100.222893	220	3	1.11	0.95;
	107	1	0	0	0	0	1	0.0640838031	-120.558039	400	3	1.05	0.95;
	108	1	0	0	0	0	1	0.0131124644	96.5317567	400	3	1.05	0.95;
	109	1	0	0	0	0	1	0.0320477998	188.339625	220	3	1.11	0.95;
	110	1	0	0	0	0	1	0.0146458153	80.2794955	220	3	1.11	0.95;
	111	1	0	0	0	0	1	1.14460752	84.384808	220	3	1.11	0.95;
	112	1	0	0	0	0	1	0.655740118	93.2213599	220	3	1.11	0.95;
	113	1	38.41	12.71	0	0	1	0.00345082289	156.608733	220	3	1.11	0.95;
	114	1	0	0	0	0	1	0.165798387	161.758036	220	3	1.11	0.95;
	115	1	0	0	0	0	1	0.143154955	171.580239	220	3	1.11	0.95;
	116	1	0	0	0	0	1	0.00983912121	160.874275	220	3	1.11	0.95;
	117	1	0	0	0	0	1	0.00828244794	-25.8875126	220	3	1.11	0.95;
	118	1	0	0	0	0	1	0.00824877367	-139.815934	220	3	1.11	0.95;
	119	1	10	44	0	0	1	0.199677597	-66.6243225	220	3	1.11	0.95;
	120	1	10	44	0	0	1	0.0568402843	54.1860687	220	3	1.11	0.95;
	121	1	7	18	0	0	1	1.50622364	173.831521	220	3	1.11	0.95;
	122	1	8	21	0	0	1	0.0276807295	140.763678	220	3	1.11	0.95;
	123	1	0	0	0	0	1	3.8252005	-72.7842786	220	3	1.11	0.95;
	124	1	59.4	11.61	0	0	1	5.05467894	82.9625293	220	3	1.11	0.95;
	125	1	0	0	0	0	1	0.55717591	-0.716153503	220	3	1.11	0.95;
	126	1	0	0	0	0	1	0.0228798145	92.9669155	220	3	1.11	0.95;
	127	1	0	0	0	0	1	0.0299872995	159.060636	220	3	1.11	0.95;
	128	1	0	0	0	0	1	0.0116824775	127.989967	220	3	1.11	0.95;
	129	1	0	0	0	0	1	0.00395698769	69.1793217	220	3	1.11	0.95;
	130	1	0	0	0	0	1	12.2019055	-36.2206723	400	3	1.05	0.95;
	131	1	0	0	0	0	1	12.2019055	-36.2206723	400	3	1.05	0.95;
	132	2	0	1.78	0	0	1	0.463100223	47.4859922	220	3	1.11	0.95;
	133	1	9	20	0	0	1	0.250000029	70.4120072	220	3	1.11	0.95;
	134	1	6	15	0	0	1	0.0844774466	-120.165791	220	3	1.11	0.95;
	135	1	0	0	0	0	1	0.176399436	152.326951	220	3	1.11	0.95;
	136	1	0	0	0	0	1	0.211689221	28.5588045	400	3	1.05	0.95;
	137	1	0	0	0	0	1	0.0491375929	103.156849	400	3	1.05	0.95;
	138	1	0	0	0	0	1	0.447043066	10.7543655	400	3	1.05	0.95;
	139	1	0	0	0	0	1	0.137187656	141.304077	400	3	1.05	0.95;
	140	1	0	0	0	0	1	0.0143383641	-98.7118947	220	3	1.11	0.95;
	141	1	0	0	0	0	1	0.00784291627	8.16697427	220	3	1.11	0.95;
	142	1	18.2	37.21	0	0	1	0.934918924	-144.243957	220	3	1.11	0.95;
	143	1	41.52	73.01	0	0	1	0.0176924939	-48.0461025	220	3	1.11	0.95;
	144	1	28	66	0	0	1	67.377897	63.3545313	400	3	1.05	0.95;
	145	1	0	0	0	0	1	12.4032114	-127.898091	400	3	1.05	0.95;
	146	1	0	0	0	0	1	0.849807266	31.9292174	220	3	1.11	0.95;
	147	1	0	0	0	0	1	3.64064212	2.61094398	220	3	1.11	0.95;
	148	1	0	0	0	0	1	4.75170435	-116.944113	220	3	1.11	0.95;
	149	1	0	0	0	0	1	8.73722637	22.5051233	220	3	1.11	0.95;
	150	2	0	-0.79	0	0	1	0.00138332049	54.0994977	220	3	1.11	0.95;
	151	2	0	-0.79	0	0	1	0.00747344664	35.7757291	220	3	1.11	0.95;
	152	1	7.7	20	0	0	1	0.205972079	-145.463118	220	4	1.11	0.95;
	153	1	7.8	20	0	0	1	0.28454332	-101.837414	220	4	1.11	0.95;
	154	1	0	0	0	0	1	7.21199599e-05	149.006067	220	4	1.11	0.95;
	155	1	0	0	0	0	1	0.00728128709	189.089285	220	4	1.11	0.95;
	156	1	0	0	0	0	1	0.0598349751	-138.533414	220	4	1.11	0.95;
	157	1	0	0	0	0	1	0.00809380734	190.439982	220	4	1.11	0.95;
	158	1	0	0	0	0	1	2.37999838e-05	114.136117	220	4	1.11	0.95;
	159	1	0	0	0	0	1	0.0107380184	13.3907499	400	4	1.05	0.95;
	160	1	0	0	0	0	1	0.00180523882	174.773608	400	4	1.05	0.95;
	161	1	0	0	0	0	1	3.19061962	-7.24340798	220	4	1.11	0.95;
	162	1	0	0	0	0	1	0.25207002	-13.7636782	220	4	1.11	0.95;
	163	1	0	0	0	0	1	0.25207002	-13.7637365	220	4	1.11	0.95;
	164	1	0	0	0	0	1	0.800006163	-77.1627172	220	4	1.11	0.95;
	165	1	0	0	0	0	1	0.800006163	-77.1627172	220	4	1.11	0.95;
	166	1	0	0	0	0	1	0.88909086	73.7921753	220	4	1.11	0.95;
	167	2	0	-13.01	0	0	1	0.00454747272	-62.4613912	220	4	1.11	0.95;
	168	1	0	0	0	0	1	0.0125825142	190.358333	220	4	1.11	0.95;
	169	1	12	30	0	0	1	0.0508953274	-59.3203975	220	4	1.11	0.95;
	170	1	19.91	36.57	0	0	1	0.0463717185	60.5470901	220	4	1.11	0.95;
	171	1	12	30	0	0	1	0.000315463219	13.0710681	400	4	1.05	0.95;
	172	1	12	30	0	0	1	0.0229563367	1.07898798	400	4	1.05	0.95;
	173	1	0	0	0	0	1	0.0353605181	-115.530642	220	4	1.11	0.95;
	174	1	0	0	0	0	1	0.0133963536	3.2387076	220	4	1.11	0.95;
	175	1	0	0	0	0	1	0.0620371158	127.960596	220	4	1.11	0.95;
	176	1	0	0	0	0	1	0.434229206	140.117561	220	4	1.11	0.95;
	177	1	30.5	64.2	0	0	1	0.0566429853	-128.382115	220	4	1.11	0.95;
	178	1	58.9	96	0	0	1	0.0350906009	-98.5437165	220	4	1.11	0.95;
	179	1	0	0	0	0	1	0.0240070634	-99.9133891	220	4	1.11	0.95;
	180	1	26.5	64.2	0	0	1	0.0305769503	-16.2910396	400	4	1.05	0.95;
	181	1	0	0	0	0	1	0.022768791	-149.490292	400	4	1.05	0.95;
	182	1	0	0	0	0	1	0.152213753	85.1599215	220	4	1.11	0.95;
	183	1	0	0	0	0	1	0.161852817	81.6011199	220	4	1.11	0.95;
	184	1	0	0	0	0	1	2.35925531	-46.1375828	400	4	1.05	0.95;
	185	1	0	0	0	0	1	1.3754713	-20.194234	400	4	1.05	0.95;
	186	1	0	0	0	0	1	4.60808507e-05	-75.7993831	400	4	1.05	0.95;
	187	1	0	0	0	0	1	0.0224022898	-94.351609	400	4	1.05	0.95;
	188	1	12	30	0	0	1	1.93602227	17.8175396	220	4	1.11	0.95;
	189	1	23.8	60	0	0	1	1.55812046	45.9225268	220	4	1.11	0.95;
	190	1	38	64	0	0	1	14.0985281	-44.4287891	400	4	1.05	0.95;
	191	1	0	0	0	0	1	0.0021206938	118.863194	220	4	1.11	0.95;
	192	1	0	0	0	0	1	0.0241046411	66.8643062	220	4	1.11	0.95;
	193	1	0	0	0	0	1	0.0124788541	111.710551	220	4	1.11	0.95;
	194	1	0	0	0	0	1	0.00594167538	49.1078148	220	4	1.11	0.95;
	195	1	0	0	0	0	1	0.219965328	-10.0379183	220	4	1.11	0.95;
	196	1	0	0	0	0	1	0.0048621686	-77.3691302	220	4	1.11	0.95;
	197	1	0	0	0	0	1	0.131758298	165.997151	400	4	1.05	0.95;
	198	1	0	0	0	0	1	0.0208297443	-32.0605194	220	4	1.11	0.95;
	199	1	0	0	0	0	1	0.00545881627	198.209244	220	4	1.11	0.95;
	200	1	0	0	0	0	1	0.015538703	24.0696553	220	4	1.11	0.95;
	201	1	0	0	0	0	1	0.57998106	65.2691376	220	4	1.11	0.95;
	202	1	0	0	0	0	1	0.153727721	195.092475	220	4	1.11	0.95;
	203	1	0	0	0	0	1	1.51793451	-81.9525821	220	4	1.11	0.95;
	204	2	0	-7.17	0	0	1	0.08334744	106.746932	220	4	1.11	0.95;
	205	1	0	0	0	0	1	0.0570115755	40.7072907	220	4	1.11	0.95;
	206	1	0	0	0	0	1	0.0114426634	169.940856	220	4	1.11	0.95;
	207	1	0	0	0	0	1	1.45560278	-115.896259	220	5	1.11	0.95;
	208	1	0	0	0	0	1	25.6147105	190.483287	220	5	1.11	0.95;
	209	1	0	0	0	0	1	0.0866610085	-34.0674117	400	5	1.05	0.95;
	210	1	0	0	0	0	1	0.0898794791	-51.8488986	400	5	1.05	0.95;
	211	1	0	0	0	0	1	0.568666751	-116.609167	400	5	1.05	0.95;
	212	1	0	0	0	0	1	0.125366723	-112.415892	400	5	1.05	0.95;
	213	1	0	0	0	0	1	0.157275614	-19.0255411	400	5	1.05	0.95;
	214	1	0	0	0	0	1	0.0241861947	-86.0799326	220	5	1.11	0.95;
	215	1	0	0	0	0	1	0.0338010898	-120.892187	220	5	1.11	0.95;
	216	1	0	0	0	0	1	0.174497499	70.246726	220	5	1.11	0.95;
	217	1	0	0	0	0	1	0.314534054	-140.041868	220	5	1.11	0.95;
	218	1	0	0	0	0	1	0.034605623	-50.6196829	400	5	1.05	0.95;
	219	1	0	0	0	0	1	0.0346056229	-50.6209984	400	5	1.05	0.95;
	220	1	0	0	0	0	1	0.297464073	204.371501	400	5	1.05	0.95;
	221	1	0	0	0	0	1	0.0225151288	26.3279261	220	5	1.11	0.95;
	222	1	0	0	0	0	1	0.432921691	-144.204475	220	5	1.11	0.95;
	223	1	0	0	0	0	1	1.77140407	-138.444519	220	5	1.11	0.95;
	224	1	0	0	0	0	1	0.370214201	182.925735	220	5	1.11	0.95;
	225	1	0	0	0	0	1	0.0515783825	-148.095409	400	5	1.05	0.95;
	226	1	0	0	0	0	1	0.00636817665	-70.6469498	400	5	1.05	0.95;
	227	1	0	0	0	0	1	6.30043362	-70.3157584	400	5	1.05	0.95;
	228	1	0	0	0	0	1	0.018961634	-117.7713	220	5	1.11	0.95;
	229	1	0	0	0	0	1	0.0164897431	151.98209	220	5	1.11	0.95;
	230	1	0	0	0	70	1	0.00469331725	81.7506959	400	5	1.05	0.95;
	231	1	0	0	0	0	1	0.00108420673	169.926398	400	5	1.05	0.95;
	232	1	0	0	0	0	1	0.0117407342	83.6657638	220	5	1.11	0.95;
	233	1	0	0	0	0	1	0.000129376016	-137.11765	220	5	1.11	0.95;
	234	1	0	0	0	0	1	0.00765499451	199.720666	220	5	1.11	0.95;
	235	1	0	0	0	0	1	0.000880554999	-136.623657	220	5	1.11	0.95;
	236	1	11	40	0	0	1	0.048492061	-29.4453585	400	5	1.05	0.95;
	237	1	5	10	0	0	1	0.0121962464	192.698434	400	5	1.05	0.95;
	238	1	0	0	0	0	1	0.150982579	195.15043	220	5	1.11	0.95;
	239	1	0	0	0	0	1	0.101540395	-53.8863207	220	5	1.11	0.95;
	240	1	8	20	0	0	0	1.15915285	-53.3428766	220	0	1.11	0.95;
	241	1	9.86	2	0	0	1	18.8362752	116.321695	110	1	1.12	0.95;
	242	1	6.41	0	0	0	1	0.0698274446	195.098679	110	1	1.12	0.95;
	243	1	9.37	0.6	0	0	1	1.30975582	-66.2579618	110	1	1.12	0.95;
	244	1	7.25	4	0	0	1	0.00357492238	-132.720711	110	1	1.12	0.95;
	245	1	0	0	0	0	1	0.0155643908	-85.713421	110	1	1.12	0.95;
	246	1	2.18	2.4	0	0	1	0.00451323214	116.194557	110	1	1.12	0.95;
	247	1	5.12	4.91	0	0	1	0.00500230894	-141.530192	110	1	1.12	0.95;
	248	1	3.65	0.9	0	0	1	0.035132554	-45.9870159	110	1	1.12	0.95;
	249	1	3.85	1	0	0	1	34.5316287	-127.122808	110	1	1.12	0.95;
	250	2	4.44	-1.76	0	0	1	0.461170435	-113.506911	110	1	1.12	0.95;
	251	1	2.5	0	0	0	1	0.380528954	175.719416	110	1	1.12	0.95;
	252	1	17.76	1.2	0	0	1	0.629838227	140.287267	110	1	1.12	0.95;
	253	1	12.33	2.1	0	0	1	0.0337751054	-28.1934092	110	1	1.12	0.95;
	254	1	7.41	0.99	0	0	1	0.0564307251	-108.498387	110	1	1.12	0.95;
	255	1	4.93	0	0	0	1	0.137263928	47.3919082	110	1	1.12	0.95;
	256	1	4.93	0	0	0	1	0.0348480283	54.2896049	110	1	1.12	0.95;
	257	1	14.8	2.5	0	0	1	0.0503703818	-131.667698	110	1	1.12	0.95;
	258	1	5.42	1.1	0	0	1	0.340501978	72.8695671	110	1	1.12	0.95;
	259	1	4.44	1	0	0	1	0.207940626	-120.290401	110	1	1.12	0.95;
	260	1	2.96	0.5	0	0	1	0.455960004	29.3290451	110	1	1.12	0.95;
	261	1	5.42	0.6	0	0	1	0.169005557	-134.411488	110	1	1.12	0.95;
	262	1	0	0	0	0	1	0.0211143532	4.66895575	110	1	1.12	0.95;
	263	1	2.96	0.9	0	0	1	0.0225001154	-6.61263673	110	1	1.12	0.95;
	264	1	5.33	1.5	0	0	1	0.00182147547	160.790295	110	1	1.12	0.95;
	265	1	3.45	0.7	0	0	1	0.00943515601	167.9453	110	1	1.12	0.95;
	266	1	3.45	0.7	0	0	1	0.17547158	158.692524	110	1	1.12	0.95;
	267	1	4.34	1.8	0	0	1	0.0251827936	76.4536514	110	1	1.12	0.95;
	268	1	4.34	1.8	0	0	1	0.026242904	-82.6945399	110	1	1.12	0.95;
	269	1	6.25	2	0	0	1	0.0142987109	181.417295	110	1	1.12	0.95;
	270	1	6.69	3	0	0	1	0.0956557546	105.82936	110	1	1.12	0.95;
	271	1	0.49	0.2	0	0	1	0.0290562903	127.383431	110	1	1.12	0.95;
	272	1	0.79	0.2	0	0	1	0.0665306363	73.0782438	110	1	1.12	0.95;
	273	1	1.18	-0.9	0	0	1	0.000418355545	71.0674708	110	1	1.12	0.95;
	274	1	4.74	0.5	0	0	1	0.0132245548	103.149417	110	1	1.12	0.95;
	275	1	0	0	0	0	1	0.0250256793	84.4501922	110	1	1.12	0.95;
	276	1	3.16	0.1	0	0	1	3.16991195	62.3680092	110	1	1.12	0.95;
	277	1	7.4	1.3	0	0	1	0.601638624	-132.552186	110	1	1.12	0.95;
	278	1	10.36	1.3	0	0	1	0.0782158953	65.065362	110	1	1.12	0.95;
	279	1	2.27	1.11	0	0	1	0.253161183	46.5255651	110	1	1.12	0.95;
	280	1	5.33	1.6	0	0	1	0.00638857201	165.122935	110	1	1.12	0.95;
	281	1	2.07	0.1	0	0	1	0.0211242588	-27.1694926	110	1	1.12	0.95;
	282	2	1.87	0.09	0	0	1	0.000519862918	110.383016	110	1	1.12	0.95;
	283	2	1.87	0.31	0	0	1	0.0127458566	-59.3180102	110	1	1.12	0.95;
	284	1	8.58	3	0	0	1	0.104465917	156.144755	110	1	1.12	0.95;
	285	1	1.58	0.4	0	0	1	0.0627891141	-111.663711	110	1	1.12	0.95;
	286	1	4.44	1.1	0	0	1	0.246427935	161.902226	110	1	1.12	0.95;
	287	1	5.33	0.5	0	0	1	0.00187918916	173.891823	110	1	1.12	0.95;
	288	1	4.64	0.4	0	0	1	0.0146943528	-69.8192236	110	1	1.12	0.95;
	289	1	13.89	7.76	0	0	1	0.0362385869	150.415468	110	1	1.12	0.95;
	290	1	19.52	11.23	0	0	1	0.0973873985	-137.159958	110	1	1.12	0.95;
	291	1	6.81	0.5	0	0	1	0.00752027155	34.6265707	110	1	1.12	0.95;
	292	1	9.57	3.84	0	0	1	0.920979445	-2.07847206	110	1	1.12	0.95;
	293	1	0	0	0	0	1	0.275658392	117.972996	110	1	1.12	0.95;
	294	1	8.38	0.8	0	0	1	0.0263485885	-52.9061814	110	1	1.12	0.95;
	295	1	0	0	0	0	1	0.116588908	121.750346	110	1	1.12	0.95;
	296	1	3.95	0.4	0	0	1	0.1086287	-109.192873	110	1	1.12	0.95;
	297	1	5.42	0.6	0	0	1	0.0608641123	-61.9316334	110	1	1.12	0.95;
	298	1	2.47	0.3	0	0	1	0.112852962	33.3581164	110	1	1.12	0.95;
	299	1	0	0	0	0	1	0.145190504	-111.103823	110	1	1.12	0.95;
	300	1	0.49	0.2	0	0	1	0.0190300658	-132.792967	110	1	1.12	0.95;
	301	1	0.17	0.3	0	0	1	0.45659246	89.8404842	110	1	1.12	0.95;
	302	1	0.06	0.1	0	0	1	0.0594154695	195.084453	110	1	1.12	0.95;
	303	1	5.92	0.7	0	0	1	11.7179898	-2.43099433	110	1	1.12	0.95;
	304	1	0.3	0.1	0	0	1	0.0055209376	67.0078882	110	1	1.12	0.95;
	305	1	0.4	0.1	0	0	1	0.140305852	5.53139677	110	1	1.12	0.95;
	306	1	10.06	7.01	0	0	1	0.105437797	198.669324	110	1	1.12	0.95;
	307	1	0.49	0.2	0	0	1	0.0999874675	-79.4264535	110	1	1.12	0.95;
	308	1	8.09	1.3	0	0	1	0.00466063499	31.0824567	110	1	1.12	0.95;
	309	1	4.74	0.4	0	0	1	0.0177153568	150.014232	110	1	1.12	0.95;
	310	1	4.74	1.74	0	0	1	0.0958570734	124.472051	110	1	1.12	0.95;
	311	1	2.86	-1.4	0	0	1	0.0112039651	11.8951389	110	1	1.12	0.95;
	312	1	2.86	-1.4	0	0	1	0.0284721006	-1.38554837	110	1	1.12	0.95;
	313	1	3.08	2	0	0	1	4.39704002	-76.3839636	110	1	1.12	0.95;
	314	1	0	0	0	0	1	0.0459756545	-15.8644725	110	1	1.12	0.95;
	315	1	0	0	0	0	1	1.46453894	1.17180705	110	1	1.12	0.95;
	316	1	20	40	0	0	1	1.85217171	22.5962214	24	1	1.12	0.95;
	317	1	4.93	1	0	0	1	0.313961372	-20.6116205	110	1	1.12	0.95;
	318	1	2.96	0.7	0	0	1	0.011612057	-99.223761	110	1	1.12	0.95;
	319	1	3.95	1	0	0	1	9.39608864	22.7490762	110	1	1.12	0.95;
	320	1	1.48	0.2	0	0	1	1.73916117	-40.7188583	110	1	1.12	0.95;
	321	1	0	0	0	45	1	0.0399858876	44.5243426	16	1	1.12	0.95;
	322	2	0	-3.42	0	0	1	0.240794593	36.8323567	110	1	1.12	0.95;
	323	1	5.42	1	0	0	1	0.0382445245	178.971165	110	1	1.12	0.95;
	324	1	6.41	1	0	0	1	0.000562828235	166.550065	110	1	1.12	0.95;
	325	1	1.97	0	0	0	1	1.03059637	-33.8190513	110	1	1.12	0.95;
	326	1	4.74	0.7	0	0	1	0.0254156598	-110.398616	110	1	1.12	0.95;
	327	1	0	0	0	0	1	0.0133262577	37.2823526	110	1	1.12	0.95;
	328	1	9.99	5.11	0	0	1	74.6187522	-2.46084943	110	1	1.12	0.95;
	329	1	7.68	4.5	0	0	1	11.9410044	168.503506	110	1	1.12	0.95;
	330	1	18.57	4	0	0	1	0.0161608752	40.5660264	110	1	1.12	0.95;
	331	1	17.67	7.31	0	0	1	0.0598666708	-120.750074	110	1	1.12	0.95;
	332	1	5.92	1	0	0	1	0.0149632817	-71.1954469	110	1	1.12	0.95;
	333	1	6.91	1	0	0	1	0.00591502722	-3.42950896	110	1	1.12	0.95;
	334	1	36.5	2	0	0	1	5.04050292	-101.891762	110	1	1.12	0.95;
	335	1	3.95	0.5	0	0	1	0.0896057983	-105.190007	110	1	1.12	0.95;
	336	1	3.75	0.7	0	0	1	0.00917178754	205.105234	110	1	1.12	0.95;
	337	1	2.07	0.4	0	0	1	0.0063140078	-76.0046055	110	1	1.12	0.95;
	338	1	9.67	3.56	0	0	1	0.0253668122	51.1518889	110	1	1.12	0.95;
	339	1	0	0	0	0	1	0.00954436637	21.4509864	110	1	1.12	0.95;
	340	1	6.41	0.6	0	0	1	0.084973157	110.895989	110	1	1.12	0.95;
	341	1	4.99	1.2	0	0	1	0.0427175766	33.2714532	110	1	1.12	0.95;
	342	1	6.79	2.5	0	0	1	0.0208899525	201.038058	110	1	1.12	0.95;
	343	1	1.97	1.3	0	0	1	0.277191317	-61.0445492	110	1	1.12	0.95;
	344	1	27.67	20.42	0	0	1	0.258288797	-41.1766289	110	1	1.12	0.95;
	345	1	20.43	20.62	0	0	1	0.609927396	-129.540276	110	1	1.12	0.95;
	346	1	36.5	12.01	0	0	1	0.0174940634	180.414776	110	1	1.12	0.95;
	347	1	4.56	3	0	0	1	0.23249596	-126.928996	110	1	1.12	0.95;
	348	1	9.96	0.9	0	0	1	0.0114469786	-106.625433	110	1	1.12	0.95;
	349	1	0	0	0	0	1	0.0374959224	133.079261	110	1	1.12	0.95;
	350	1	7	2	0	0	1	0.00273307065	-56.9995474	110	1	1.12	0.95;
	351	1	0	0	0	0	1	0.000470149352	124.903205	110	1	1.12	0.95;
	352	1	13.32	1.4	0	0	1	2.21456731	-103.638501	110	1	1.12	0.95;
	353	1	2.47	0	0	0	1	0.579046563	-92.169618	110	1	1.12	0.95;
	354	1	1.97	0	0	0	1	0.0790039885	155.115298	110	1	1.12	0.95;
	355	1	5.92	1.56	0	0	1	0.39307912	6.1236083	110	1	1.12	0.95;
	356	1	5.92	1.56	0	0	1	0.107067894	174.547777	110	1	1.12	0.95;
	357	1	0	0	0	0	1	0.0301682074	-103.321148	110	1	1.12	0.95;
	358	1	0	0	0	0	1	0.00100922441	-47.254804	110	1	1.12	0.95;
	359	1	0.18	0.05	0	0	1	0.00788257671	109.284035	110	1	1.12	0.95;
	360	1	0	0	0	0	1	0.0805605108	176.507289	110	1	1.12	0.95;
	361	1	15.19	7.91	0	0	1	0.520863198	122.480949	110	1	1.12	0.95;
	362	1	0	0	0	0	1	2.51460562	177.666874	110	1	1.12	0.95;
	363	1	3.65	0.8	0	0	1	0.0329217909	-63.2956323	110	1	1.12	0.95;
	364	1	3.65	0.8	0	0	1	0.22519045	-108.941151	110	1	1.12	0.95;
	365	1	1.97	0.4	0	0	1	6.14734273	78.5103724	110	1	1.12	0.95;
	366	1	6.41	1	0	0	1	1.5892732	52.5872213	110	1	1.12	0.95;
	367	1	6.69	2.2	0	0	1	0.0263629211	94.790756	110	1	1.12	0.95;
	368	1	5.53	1.8	0	0	1	0.52120524	47.24931	110	1	1.12	0.95;
	369	1	0.15	0.67	0	0	1	0.04204556	184.38993	110	1	1.12	0.95;
	370	1	18.52	12.25	0	0	1	0.0267394736	88.0114399	110	1	1.12	0.95;
	371	1	14.09	6.13	0	0	1	0.0699644001	-46.5922667	110	1	1.12	0.95;
	372	1	1.97	0.4	0	0	1	0.00314897218	55.4423371	110	1	1.12	0.95;
	373	1	0	0	0	0	1	0.798135089	44.2670974	110	1	1.12	0.95;
	374	1	12.04	4.84	0	0	1	0.00599132457	23.8780367	110	1	1.12	0.95;
	375	1	0	0	0	0	1	0.00942182802	45.6515731	110	1	1.12	0.95;
	376	1	2.47	0.8	0	0	1	0.329137808	-75.8248824	110	1	1.12	0.95;
	377	1	5.13	2.2	0	0	1	0.00258709103	-132.748472	110	1	1.12	0.95;
	378	1	5.62	2.4	0	0	1	0.00147617782	-85.5397244	110	1	1.12	0.95;
	379	1	0	0	0	0	1	0.406037831	108.96336	110	1	1.12	0.95;
	380	1	7.89	1.3	0	0	1	1.20646985	91.1346526	110	1	1.12	0.95;
	381	1	2.96	0	0	0	1	0.719218011	45.0135916	110	1	1.12	0.95;
	382	1	3.28	2	0	0	1	4.00000859	-58.2406447	110	1	1.12	0.95;
	383	1	3.13	2	0	0	1	3.7900118	-9.90558639	110	1	1.12	0.95;
	384	1	2.86	0.2	0	0	1	0.0515520322	139.083871	110	1	1.12	0.95;
	385	1	8.53	3.3	0	0	1	0.0047834009	61.2584168	110	1	1.12	0.95;
	386	1	9.79	4.71	0	0	1	0.0192982257	200.61616	110	1	1.12	0.95;
	387	1	8.2	1.8	0	0	1	0.442996191	160.540736	110	1	1.12	0.95;
	388	1	5.62	2.07	0	0	1	0.0171720584	81.9692265	110	1	1.12	0.95;
	389	1	0	0	0	0	1	0.0639009481	123.977047	110	1	1.12	0.95;
	390	1	3.74	0.85	0	0	1	2.47130472	75.9006216	110	1	1.12	0.95;
	391	1	5.33	0.7	0	0	1	0.635664249	-123.699198	110	1	1.12	0.95;
	392	1	11.44	0.7	0	0	1	0.108595267	-147.973892	110	1	1.12	0.95;
	393	1	2.07	0.7	0	0	1	0.00611329966	136.032546	110	1	1.12	0.95;
	394	1	2.07	0.7	0	0	1	0.00178167645	-71.2639594	110	1	1.12	0.95;
	395	1	9.67	3.88	0	0	1	0.0502592802	31.1872417	110	1	1.12	0.95;
	396	1	0	0	0	0	1	0.0193273387	-98.3703536	110	1	1.12	0.95;
	397	1	9.57	3.52	0	0	1	0.0704457715	96.5694695	110	1	1.12	0.95;
	398	2	4.93	-0.66	0	0	1	0.0601951413	-111.15615	110	1	1.12	0.95;
	399	1	5.42	0.5	0	0	1	0.0411337783	-150.096268	110	1	1.12	0.95;
	400	1	0	0	0	0	1	0.00181520725	-60.892815	110	1	1.12	0.95;
	401	1	4.54	1.9	0	0	1	0.0953427918	15.8050967	110	1	1.12	0.95;
	402	1	14.99	6.03	0	0	1	0.00766259123	126.676333	110	1	1.12	0.95;
	403	1	0	0	0	0	1	0.0164888255	146.193119	110	1	1.12	0.95;
	404	1	10.95	4.03	0	0	1	0.0151597852	77.7279563	110	1	1.12	0.95;
	405	1	0	0	0	0	1	0.0395133411	65.6557049	110	1	1.12	0.95;
	406	1	14.21	5.24	0	0	1	0.576816795	-73.1727298	110	1	1.12	0.95;
	407	1	17.76	6.54	0	0	1	0.0116381944	4.35076316	110	1	1.12	0.95;
	408	1	5.66	1.52	0	0	1	0.0170220943	156.166678	110	1	1.12	0.95;
	409	1	22.7	9.13	0	0	1	0.0266305838	51.5907054	110	1	1.12	0.95;
	410	1	0	0	0	0	1	0.0917050833	-63.7221264	110	1	1.12	0.95;
	411	1	14.44	10.73	0	0	1	0.0554201205	-111.591888	110	1	1.12	0.95;
	412	2	14.2	0.68	0	0	1	0.0198755592	-151.805692	110	1	1.12	0.95;
	413	1	0	0	0	0	1	0.0348751245	-145.64085	110	1	1.12	0.95;
	414	2	1.1	-4.85	0	0	1	0.068893234	-34.6096179	110	1	1.12	0.95;
	415	1	12.46	9.56	0	0	1	1.4082939	-50.4498497	110	1	1.12	0.95;
	416	1	11.34	0.7	0	0	1	0.0254181938	100.156201	110	1	1.12	0.95;
	417	1	0	0	0	0	1	0.00268426915	-45.315515	110	1	1.12	0.95;
	418	1	1.97	0.2	0	0	1	4.25778145	-70.2080545	110	1	1.12	0.95;
	419	1	2.82	0	0	0	1	0.000978393151	204.067531	110	1	1.12	0.95;
	420	1	4.03	1	0	0	1	0.0422823814	-37.0471802	110	1	1.12	0.95;
	421	1	2.28	0.4	0	0	1	0.105693771	-153.788304	110	1	1.12	0.95;
	422	1	10.41	2	0	0	1	0.11462657	55.555412	110	1	1.12	0.95;
	423	1	0	0	0	0	1	0.490622221	-109.123765	110	1	1.12	0.95;
	424	1	7.79	2.5	0	0	1	0.0148883104	-61.6992432	110	1	1.12	0.95;
	425	1	5.97	1.7	0	0	1	0.131906571	-136.581469	110	1	1.12	0.95;
	426	1	9.67	3.56	0	0	1	0.119138678	162.360417	110	1	1.12	0.95;
	427	1	0	0	0	0	1	0.632104066	6.9133192	110	1	1.12	0.95;
	428	1	17.07	6.29	0	0	1	0.0623174404	156.853263	110	1	1.12	0.95;
	429	1	0	0	0	0	1	0.0102942549	-140.525903	110	1	1.12	0.95;
	430	1	5.42	1	0	0	1	1.48650357	70.0452981	110	1	1.12	0.95;
	431	1	4.93	1	0	0	1	0.926022063	122.210099	110	1	1.12	0.95;
	432	1	23.18	9.32	0	0	1	0.0796403782	-103.938006	110	1	1.12	0.95;
	433	1	0	0	0	0	1	0.115187567	123.861541	110	1	1.12	0.95;
	434	1	7.45	2.74	0	0	1	0.239112028	119.461047	110	1	1.12	0.95;
	435	1	7.45	2.74	0	0	1	0.000174464725	127.237059	110	1	1.12	0.95;
	436	1	5.92	0.7	0	0	1	2.88159528	-127.080151	110	1	1.12	0.95;
	437	1	2.96	0.2	0	0	1	3.28850212	93.5865034	110	1	1.12	0.95;
	438	1	8.09	2	0	0	1	0.195723551	75.2607804	110	1	1.12	0.95;
	439	1	7.4	1.9	0	0	1	0.0698123831	79.2201953	110	1	1.12	0.95;
	440	1	10.46	3.85	0	0	1	0.00429580591	-107.873721	110	1	1.12	0.95;
	441	1	9.07	2.4	0	0	1	1.49719	59.6006887	110	1	1.12	0.95;
	442	1	5.42	1	0	0	1	2.05085424	5.89573251	110	1	1.12	0.95;
	443	1	25.35	9.34	0	0	1	0.0104814709	178.168152	110	1	1.12	0.95;
	444	1	0	0	0	0	1	0.0265517434	-113.777969	110	1	1.12	0.95;
	445	1	10.97	0	0	0	1	0.00149425897	102.151728	110	1	1.12	0.95;
	446	1	9.61	0	0	0	1	0.0352484095	-142.503013	110	1	1.12	0.95;
	447	1	2.96	0.7	0	0	1	0.0832606342	40.4066495	110	1	1.12	0.95;
	448	1	7.89	1.2	0	0	1	0.0359656725	158.832611	110	1	1.12	0.95;
	449	1	0	0	0	0	1	0.000723129199	201.082676	110	1	1.12	0.95;
	450	1	8.38	1.2	0	0	1	0.00459915211	-131.2446	110	1	1.12	0.95;
	451	1	12.43	4.57	0	0	1	0.327606767	-24.9031307	110	1	1.12	0.95;
	452	1	0	0	0	0	1	0.0956917478	-26.0062506	110	1	1.12	0.95;
	453	1	8.5	4	0	0	1	0.000722265263	154.053799	110	1	1.12	0.95;
	454	1	0	0	0	0	1	0.012262358	154.648747	110	1	1.12	0.95;
	455	1	9.86	2.6	0	0	1	0.0023620003	-151.257664	110	1	1.12	0.95;
	456	1	9.86	2.6	0	0	1	0.000578970792	46.823669	110	1	1.12	0.95;
	457	1	4.93	0.8	0	0	1	4.01291029	145.480003	110	1	1.12	0.95;
	458	1	0	0	0	0	1	0.00306351758	169.176815	110	1	1.12	0.95;
	459	1	0	0	0	0	1	0.0321536387	181.719842	110	1	1.12	0.95;
	460	1	0	0	0	0	1	8.56132809	-39.8209406	110	1	1.12	0.95;
	461	1	0	0	0	45	1	6.43014584e-08	-55.3980904	16	1	1.12	0.95;
	462	1	0	0	0	0	1	14.8224226	26.4970197	32	1	1.12	0.95;
	463	1	18.17	7.41	0	0	1	0.131511813	126.687531	110	1	1.12	0.95;
	464	1	14.04	5.41	0	0	1	1.837005	-100.718901	110	1	1.12	0.95;
	465	1	5.72	0.9	0	0	1	1.48974678	140.834297	110	1	1.12	0.95;
	466	2	7.68	0.38	0	0	1	0.365909109	-127.172821	110	1	1.12	0.95;
	467	1	14.8	1.4	0	0	1	0.0175283162	-81.2357401	110	1	1.12	0.95;
	468	1	0	0	0	0	1	0.0516545667	47.490637	110	1	1.12	0.95;
	469	1	11.94	4.4	0	0	1	0.0425801779	-151.564631	110	1	1.12	0.95;
	470	1	0	0	0	0	1	0.00589955247	168.789741	110	1	1.12	0.95;
	471	1	9.37	2.38	0	0	1	0.0671329429	-49.1993684	110	1	1.12	0.95;
	472	1	0	0	0	0	1	9.25155144e-05	-146.28186	110	1	1.12	0.95;
	473	1	5.92	1	0	0	1	0.569861789	-127.537257	110	1	1.12	0.95;
	474	1	0.99	0.3	0	0	1	0.261242245	-93.9611255	110	1	1.12	0.95;
	475	1	0	0	0	0	1	1.17491242	15.2686531	110	1	1.12	0.95;
	476	1	0	0	0	0	1	0.738734979	144.784947	110	1	1.12	0.95;
	477	1	0	0	0	15	1	0.0766576344	-144.413772	16	1	1.12	0.95;
	478	1	0	0	0	15	1	0.0125290395	142.150787	16	1	1.12	0.95;
	479	1	2.46	0.3	0	0	1	0.257714594	133.819874	110	1	1.12	0.95;
	480	1	4.94	2	0	0	1	1.19253985	-29.2982035	110	1	1.12	0.95;
	481	1	5.92	2.1	0	0	1	0.0277474482	-13.6704627	110	1	1.12	0.95;
	482	1	5.92	2.1	0	0	1	0.0241820875	-113.611163	110	1	1.12	0.95;
	483	1	5.72	1.6	0	0	1	0.000191292963	0.574255586	110	1	1.12	0.95;
	484	1	3.85	1.4	0	0	1	0.0163028769	187.578077	110	1	1.12	0.95;
	485	1	0	0	0	0	1	2.94108935e-05	95.1054157	110	1	1.12	0.95;
	486	1	0	0	0	0	1	0.0749612409	-122.450932	110	1	1.12	0.95;
	487	1	0	0	0	0	1	0.0815585715	157.1951	110	1	1.12	0.95;
	488	1	0	0	0	0	1	0.0352326075	49.9971174	16	1	1.12	0.95;
	489	1	2.56	0.6	0	0	1	0.00435121413	116.680546	110	1	1.12	0.95;
	490	1	2.86	1.5	0	0	1	0.00242730373	114.649294	110	1	1.12	0.95;
	491	1	7.57	2.2	0	0	1	0.121455336	108.880536	110	1	1.12	0.95;
	492	1	44.88	17.02	0	0	1	0.0973908746	-120.667269	110	1	1.12	0.95;
	493	1	53.77	21.02	0	0	1	0.142703521	180.473995	110	1	1.12	0.95;
	494	1	69.15	28.02	0	0	1	0.0868793517	97.1106853	110	1	1.12	0.95;