function mpc = case2869pegase_resqlim
%CASE2869PEGASE_RESQLIM

%% MATPOWER Case Format : Version 2
mpc.version = '2';

%%-----  Power Flow Data  -----%%
%% system MVA base
mpc.baseMVA = 100;

%% bus data
%    bus_i    type    Pd    Qd    Gs    Bs    area    Vm    Va    baseKV    zone    Vmax    Vmin
mpc.bus = [
    3    1    151    48.8    0    4.69    0    1.0159732    -21.7899594    220    5    1.1    0.9;
    4    1    171.41    23.4    0    2.1    0    1.02549253    -6.86728794    220    5    1.1    0.9;
    10    1    134    24.7    0    12.44    0    1.03663835    -23.9297515    220    5    1.1    0.9;
    15    1    59.67    26.7    0    12.84    0    1.02422385    -48.8506443    220    4    1.1    0.9;
    21    1    161.2    39.3    0    30.71    0    1.03442536    -21.5641817    220    5    1.1    0.9;
    22    1    0    -0    0    0.85    0    1.03146964    -18.2436003    220    5    1.1    0.9;
    26    1    167.3    54.8    0    110.54    0    1.03282974    -3.23689231    380    5    1.1    0.9;
    29    1    152.9    49.4    0    27.65    0    0.996830776    -13.6125666    380    5    1.1    0.9;
    32    1    0    0    0    0    0    1.00230507    -42.8049027    220    4    1.1    0.9;
    33    2    0    0    0    0    0    1.031909    -38.5366092    220    4    1.1    0.9;
    38    1    42.75    12.8    0    13.3    0    1.02847599    27.4230984    220    8    1.1    0.9;
    39    2    0    0    0    0    0    1.005551    -38.1369695    150    10    1.1    0.9;
    42    1    20.82    7.9    0    26.89    0    1.04722207    -48.9806333    380    4    1.1    0.9;
    44    1    -0    0    0    7.27    0    1.04400269    -21.8203645    220    5    1.1    0.9;
    51    2    0    0    0    0    0    1.01198    -47.9735052    220    4    1.1    0.9;
    52    1    127.6    31.8    0    20.51    0    1.01377605    1.56404839    150    8    1.1    0.9;
    53    1    48.65    16.1    0    7.14    0    1.06052932    -9.0778281    220    5    1.1    0.9;
    58    1    0    0    0    2.31    0    0.996663482    -15.5759665    380    5    1.1    0.9;
    59    1    119.2    20.7    0    3.31    0    1.01956967    -23.8602911    220    5    1.1    0.9;
    69    1    62.87    20.5    0    1.15    0    1.01235222    0.347311196    150    8    1.1    0.9;
    71    1    126.3    42.4    0    55.24    0    1.03800169    4.67558026    150    8    1.1    0.9;
    72    1    6.91    -4.6    0    5.75    0    1.00881548    -41.1124243    220    4    1.1    0.9;
    75    1    38.74    6.1    0    1.17    0    1.02431637    -53.0176919    220    4    1.1    0.9;
    76    1    22.13    10.7    0    14.21    0    1.02853786    27.4327159    220    8    1.1    0.9;
    77    1    -0    -0    0    0.73    0    1.01408984    -50.3034882    220    4    1.1    0.9;
    89    1    0    0    0.199111    4.530599    0    0.995743716    -2.11979355    380    2    1.1    0.9;
    90    1    363.25    115.39    0    3.95    0    1.04152694    -27.528565    220    5    1.1    0.9;
    91    1    -0    0    0    0.02    0    1.01177434    2.65908229    150    8    1.1    0.9;
    96    1    -8.4    28.66    0    3.49    0    1.03400441    -15.5042128    220    5    1.1    0.9;
    113    1    -0    -0    0    6.532711    0    1.03036066    -14.0064357    380    5    1.1    0.9;
    115    1    0    -0    0    4.21    0    1.06525905    -19.3737347    220    5    1.1    0.9;
    118    1    704.53    -35.33    0    13.102834    0    1.02190052    -11.3029434    380    5    1.1    0.9;
    124    2    0    0    0    0    0    1.079291    8.49154325    220    5    1.1    0.9;
    128    1    23.73    12.7    0    0.52    0    1.0196868    -15.6152813    220    5    1.1    0.9;
    130    1    -0    0    0.135375    47.750675    0    1.06297734    -47.1650485    380    10    1.1    0.9;
    132    1    0    -0    0    21.39    0    1.06782568    -43.8351877    380    1    1.1    0.9;
    133    1    38.14    12.5    0    6.28    0    1.01970173    3.12468301    150    8    1.1    0.9;
    138    1    -75.38    7.8    0    29.9    0    1.07115357    -41.8324284    380    10    1.1    0.9;
    139    1    -764.34    66.91    0    33.47    0    1.00371278    18.8906193    380    8    1.1    0.9;
    140    1    0    0    0    4.14    0    1.02911563    18.8900287    220    8    1.1    0.9;
    143    1    0    0    0    0    0    1.01416951    5.90090547    150    8    1.1    0.9;
    145    1    38.34    5.6    0    7.64    0    1.04216934    -8.81778826    220    5    1.1    0.9;
    148    1    32.34    12    0    6.1    0    1.04168656    -7.87174628    220    5    1.1    0.9;
    150    2    0    0    0    0    0    1.062067    2.66443891    220    5    1.1    0.9;
    163    1    147.76    32.73    0    8.34    0    1.03783699    -10.5628265    220    5    1.1    0.9;
    164    1    0    -0    0    5.17    0    1.01598973    0.591240952    150    8    1.1    0.9;
    171    1    100.8    13.2    0    5.24    0    1.06350814    -25.0679009    220    5    1.1    0.9;
    172    1    111.7    10.96    0    4.22    0    1.01656519    -47.0927945    220    4    1.1    0.9;
    174    1    370.5    -17    0    9.91    0    1.0729671    -27.6441642    220    5    1.1    0.9;
    177    1    94.9    36.2    0    16.46    0    0.973372638    -43.1819807    220    10    1.1    0.9;
    179    1    0    0    0    0    0    1.04667737    -49.7828362    380    4    1.1    0.9;
    184    1    -0    -0    0    2.42    0    1.04306042    -11.394824    220    5    1.1    0.9;
    188    1    36.84    13.9    0    3.3    0    1.01733204    -19.3183189    220    5    1.1    0.9;
    194    2    0    0    0    0    0    1.029584    14.2794972    150    8    1.1    0.9;
    195    1    73.14    21.55    0    8.52    0    1.05318987    -8.50962183    220    5    1.1    0.9;
    196    1    0    -0    0    12.48    0    1.07263362    -25.9386021    220    5    1.1    0.9;
    198    1    39.74    11.8    0    1.44    0    1.01527781    -15.8904849    220    5    1.1    0.9;
    199    1    86.8    28.4    0    1.34    0    1.01180405    1.8272051    150    8    1.1    0.9;
    201    1    0    0    0    0    0    1.02433389    -51.2422377    220    4    1.1    0.9;
    205    1    46.15    18.2    0    1.29    0    1.00912534    6.50420212    150    8    1.1    0.9;
    207    1    321.98    84.4    0    1.34    0    1.02713999    -12.9416507    220    5    1.1    0.9;
    211    1    75.28    19.2    0    1.9    0    1.03245238    14.6707175    110    8    1.1    0.9;
    216    1    155.6    54.7    0    2.21    0    1.03853638    -24.2858295    220    5    1.1    0.9;
    217    1    105.2    0.1    0    7.36    0    1.03487994    -2.50905179    220    5    1.1    0.9;
    218    1    69.83    15.12    0    2.23    0    1.04206055    -13.1265125    220    5    1.1    0.9;
    221    2    0    0    0    0    0    0.996091    -16.2014926    380    5    1.1    0.9;
    225    1    0    0    0    1.15    0    1.06221906    -19.765486    220    5    1.1    0.9;
    228    1    -23.43    57.4    0    0    0    1.04442372    -6.55202783    150    2    1.1    0.9;
    230    1    152.07    22.52    0    7.87    0    1.00674366    -46.7994116    220    4    1.1    0.9;
    231    1    -0.13    -1    0    0    0    1.01975491    24.2170529    110    8    1.1    0.9;
    236    1    45.85    7    0    1.05    0    1.02833353    -54.0617764    220    4    1.1    0.9;
    243    1    0    -0.01    0    13.49    0    1.01714555    18.263774    150    8    1.1    0.9;
    244    1    -0    -0    0    0.68    0    1.01892415    6.39474266    150    8    1.1    0.9;
    249    1    -0    -0    0    26.3    0    1.00168844    -42.8039103    220    4    1.1    0.9;
    257    1    113.9    24.5    0    6.72    0    1.03396152    -46.1366044    220    4    1.1    0.9;
    261    1    -0    0    0    1.29    0    1.05685006    -45.6285164    380    10    1.1    0.9;
    264    1    38.74    9    0    0.57    0    1.01504907    -46.8441015    220    4    1.1    0.9;
    266    1    0    -0    0    140.96    0    1.05805612    -42.3292726    380    4    1.1    0.9;
    267    1    103.8    2.7    0    3.33    0    1.01627282    -51.4825126    220    4    1.1    0.9;
    268    1    -0.13    -1    0    0    0    1.04664379    27.5830431    220    8    1.1    0.9;
    271    1    96.7    26.8    0    0    0    1.0397166    -6.87698197    150    2    1.1    0.9;
    275    1    102.1    25.3    0    1.11    0    1.01339343    2.6203802    150    8    1.1    0.9;
    280    1    119.6    29.6    0    5.34    0    1.03184439    -10.9897914    220    5    1.1    0.9;
    281    1    -0    -0    0    18.07    0    1.03502782    14.4994016    380    8    1.1    0.9;
    283    1    27.33    11.9    0    1.17    0    1.03605479    -11.622987    220    5    1.1    0.9;
    284    1    191.2    -3.4    0    19.21    0    1.02375905    -48.9012525    220    4    1.1    0.9;
    292    1    13.82    1.4    0    0.7    0    1.04292502    -14.666296    220    5    1.1    0.9;
    297    1    23.73    9.4    0    1.45    0    1.02593582    5.91807588    150    8    1.1    0.9;
    299    2    0    0    0    0    0    1.046197    -46.2903879    380    4    1.1    0.9;
    304    1    2.2    0.5    0    0.21    0    0.994432023    -54.2550193    150    10    1.1    0.9;
    305    1    103    12    0    0.63    0    1.06566975    -32.398594    220    5    1.1    0.9;
    306    1    -0    0    0    4.76    0    1.02796679    -18.3888712    220    5    1.1    0.9;
    311    1    42.05    17.2    0    1.31    0    1.00331851    0.255622596    150    8    1.1    0.9;
    312    1    -0.16    -2.91    0    0.43    0    1.05568189    12.9544909    110    8    1.1    0.9;
    314    1    163.1    46.3    0    10.6    0    0.999499298    -15.8465995    220    5    1.1    0.9;
    315    1    -0    -0    0    2.13    0    1.02685373    -36.3858766    220    10    1.1    0.9;
    317    1    -0    -0    0.045946    -1.82203    0    1.01773984    4.59629443    380    2    1.1    0.9;
    322    1    303.8    85.4    0    3.63    0    0.963929143    -44.7100222    220    10    1.1    0.9;
    326    1    0    0    0    0    0    1.04677673    27.6299289    220    8    1.1    0.9;
    333    1    524.5    43    0    6.85    0    1.01078352    -42.1010235    220    5    1.1    0.9;
    338    2    0    0    0    0    0    1.049578    -6.04479558    220    5    1.1    0.9;
    344    1    372.8    147.5    0    27.73    0    1.02291987    -0.22113084    150    8    1.1    0.9;
    346    1    197.5    48.3    0    0.71    0    1.03909874    -20.9828014    220    5    1.1    0.9;
    349    1    -0    0    0    15.15    0    1.04730689    9.74373003    150    8    1.1    0.9;
    350    1    110.4    26.2    0    5.62    0    1.04255624    -23.9177284    220    5    1.1    0.9;
    351    1    -0.15    -1.93    0    0    0    1.02797782    19.6206469    220    8    1.1    0.9;
    352    2    0    0    0    0    0    1.054691    0.76286259    380    5    1.1    0.9;
    360    1    35.54    11.5    0    3.65    0    1.04842825    12.6744581    110    8    1.1    0.9;
    367    1    65.17    -51.5    0    4.85    0    1.06953542    -23.2076349    220    5    1.1    0.9;
    369    1    -0    0    0    3.78    0    1.04509678    14.6667363    220    8    1.1    0.9;
    370    1    56.76    23.2    0    0.49    0    1.00061441    0.0641814503    150    8    1.1    0.9;
    377    1    -0.18    -1    0    0    0    1.02162015    11.6226969    150    8    1.1    0.9;
    380    1    -95.71    -2.8    0    7.25    0    1.00431414    -33.1941999    220    10    1.1    0.9;
    385    1    -0    -0    0    105.84    0    1.04466369    -49.6658079    380    4    1.1    0.9;
    387    1    -0.19    -4.38    0    0    0    1.04047592    7.89000058    150    8    1.1    0.9;
    389    2    0    0    0    0    0    1.020856    -41.1543028    150    10    1.1    0.9;
    392    1    134.1    34.2    0    0.75    0    1.00602458    0.279557821    150    8    1.1    0.9;
    395    1    -0    -0    0    7.85    0    1.03414047    15.7919223    380    8    1.1    0.9;
    401    1    56.5    36.29    0    3.08    0    1.02820896    -14.1783564    220    5    1.1    0.9;
    408    1    129.1    7.4    0    0.04    0    1.04148467    -11.1189046    220    5    1.1    0.9;
    410    1    170.89    50.38    0    6.44    0    1.02329395    -26.7000312    220    5    1.1    0.9;
    413    2    0    0    0    0    0    1.052152    -6.16240621    220    5    1.1    0.9;
    415    1    4.71    0.7    0    11.39    0    1.02917008    -52.0589128    220    4    1.1    0.9;
    416    1    70.68    13.5    0    6.96    0    1.04177081    -6.76256494    220    5    1.1    0.9;
    420    1    0    0    0    0    0    1.0497983    19.0723023    380    8    1.1    0.9;
    425    1    -0    0    0    2.72    0    1.00773062    8.57637407    380    1    1.1    0.9;
    426    1    123.1    6.5    0    3.25    0    1.04020953    -18.2267057    220    5    1.1    0.9;
    427    1    -0    0    0    1.24    0    1.077855    -35.9326894    380    1    1.1    0.9;
    429    1    26.93    -22.4    0    4.95    0    1.01927407    -48.7146264    220    4    1.1    0.9;
    432    1    -0    -0    0    68.517663    0    1.04550277    2.53907626    380    5    1.1    0.9;
    440    2    0    0    0    0    0    1.029422    -36.5299227    220    4    1.1    0.9;
    441    1    -0    0    0.199768    27.888516    0    1.03716884    -52.2337896    380    10    1.1    0.9;
    442    1    0    0    0    0    0    1.01335457    -46.4637695    220    4    1.1    0.9;
    444    1    0    -0    0    2.45    0    1.036757    -11.6805574    220    5    1.1    0.9;
    445    1    36.74    10.3    0    8.1    0    1.02202594    -44.9530493    220    4    1.1    0.9;
    449    1    0    0    0    29.42    0    1.02111855    -8.03792842    380    5    1.1    0.9;
    453    2    0    0    0    0    0    1.021096    -7.72336139    380    5    1.1    0.9;
    455    1    274.32    5.66    0    13.24    0    1.03938676    -30.7835099    220    5    1.1    0.9;
    472    1    336.2    131.6    0    64.01    0    1.04981591    8.5648544    150    8    1.1    0.9;
    473    1    -22.95    -3.72    0    14.34    0    1.02646972    -46.1051641    220    4    1.1    0.9;
    477    1    0    0    0    70.37    0    1.0493799    -42.3170256    380    4    1.1    0.9;
    481    1    -0    0    0    17.44    0    1.02368676    -48.3975316    220    4    1.1    0.9;
    483    1    57.26    15.6    0    3.43    0    1.02297027    -49.9418098    220    4    1.1    0.9;
    486    1    7.01    2    0    0.44    0    1.01538928    4.70662201    150    8    1.1    0.9;
    489    2    0    0    0    0    0    1.012805    -47.6531634    220    4    1.1    0.9;
    490    1    20.52    4    0    2.77    0    1.03634356    -22.6266705    220    5    1.1    0.9;
    496    1    -0    -0    0    10.04    0    1.01846545    11.7512252    150    8    1.1    0.9;
    500    1    144.4    35.5    0    7.66    0    1.03797371    -15.0859065    220    5    1.1    0.9;
    502    1    -0    0    0    1.96    0    1.04396994    -6.56341665    220    5    1.1    0.9;
    506    1    -0    0    0    0.4    0    1.06282131    -8.9448204    380    5    1.1    0.9;
    509    1    77.29    7    0    17.6    0    1.01594466    -60.5387705    220    4    1.1    0.9;
    513    1    57.46    17.1    0    1.61    0    1.03882819    -7.32699515    220    5    1.1    0.9;
    516    2    0    0    0    0    0    1.074804    -33.214805    220    5    1.1    0.9;
    519    1    207.2    9.4    0    8.77    0    1.02670068    -50.6798015    220    4    1.1    0.9;
    520    1    118.5    20.4    0    2.57    0    1.04828247    -27.1499454    220    5    1.1    0.9;
    523    1    189.9    74.7    0    26.2    0    1.04321647    7.91073849    150    8    1.1    0.9;
    527    1    277.7    45.4    0    0.7    0    1.01438777    -46.6738743    220    4    1.1    0.9;
    536    1    87.8    -1.4    0.079073    36.047349    0    1.05963943    -48.5055201    380    10    1.1    0.9;
    539    1    57.96    18.9    0    14.91    0    1.01396593    3.67175715    150    8    1.1    0.9;
    544    1    79.69    39.6    0    18.83    0    1.03905168    -51.9695177    380    10    1.1    0.9;
    548    1    30.93    8.9    0    0.45    0    1.03323472    17.2425136    110    8    1.1    0.9;
    549    1    0    -0    0    5.15    0    1.07160827    -10.5345828    220    5    1.1    0.9;
    550    1    0    -0    0    10    0    1.04002675    -45.7595574    220    4    1.1    0.9;
    552    1    180.8    90.8    0    2.42    0    0.969248687    -43.4018549    150    10    1.1    0.9;
    554    1    0    -0    0    1.97    0    1.02042155    -20.5695532    220    5    1.1    0.9;
    556    1    16.52    9    0    1.17    0    1.03670309    -22.3738165    220    5    1.1    0.9;
    558    1    -0.18    -3.57    0    0    0    1.01715334    18.2637961    150    8    1.1    0.9;
    559    1    42.25    16.6    0    0    0    1.03525736    6.75452923    150    8    1.1    0.9;
    561    1    0    -0    0    0.32    0    1.05190511    -11.091433    220    5    1.1    0.9;
    564    2    0    0    0    0    0    1.069692    -47.0345102    220    5    1.1    0.9;
    575    1    0    -0    0    0.67    0    1.04479626    -10.6053684    220    5    1.1    0.9;
    577    1    -0.13    -1    0    0    0    1.04589232    27.4995407    220    8    1.1    0.9;
    579    1    17.32    6.6    0    16.52    0    1.02155685    -52.086379    380    4    1.1    0.9;
    583    2    0    0    0    0    0    1.043394    -15.5947794    220    5    1.1    0.9;
    585    1    21.12    8.3    0    4.26    0    1.03266779    5.38720684    150    8    1.1    0.9;
    593    1    -0    0    0    29.2    0    1.05458367    11.677031    380    8    1.1    0.9;
    594    1    67.57    17    0    5.75    0    1.03825253    -8.41551553    220    5    1.1    0.9;
    595    1    47.55    5.3    0    7.59    0    1.02863068    -50.6754892    220    4    1.1    0.9;
    597    1    33.34    15.7    0    64.15    0    1.05757738    -48.0384797    380    4    1.1    0.9;
    601    1    140.6    42.6    0    5.71    0    1.03973062    -14.3430543    220    5    1.1    0.9;
    602    1    110.8    -8.8    0    3.15    0    1.02298327    -47.4050955    220    4    1.1    0.9;
    604    1    33.24    4.4    0    24.54    0    0.996501956    -12.4640365    380    5    1.1    0.9;
    608    1    150.9    10.4    0    4.77    0    1.06718405    -32.6445377    220    5    1.1    0.9;
    609    1    -0    -0    0    5.67    0    1.02259401    -14.8280413    220    5    1.1    0.9;
    610    1    -0    0    0    0.91    0    0.990248016    -55.9497045    150    10    1.1    0.9;
    615    2    0    0    0    0    0    1.06611    -10.5846432    220    5    1.1    0.9;
    616    2    0    0    0    0    0    1.049295    -12.9333904    220    5    1.1    0.9;
    618    2    0    0    0    0    0    1.028233    -49.0476588    380    4    1.1    0.9;
    619    1    72.88    14.4    0    2.96    0    1.0438859    -25.0297995    220    5    1.1    0.9;
    621    1    21.42    8.1    0    7.38    0    1.01940006    -51.9809332    220    4    1.1    0.9;
    628    2    0    0    0    0    0    0.98494    -35.0280486    220    10    1.1    0.9;
    639    2    0    0    0    0    0    1.046182    -30.4432154    220    5    1.1    0.9;
    641    1    45.32    18.5    0    0.74    0    1.0382993    -13.7739245    220    5    1.1    0.9;
    642    2    0    0    0    0    0    1.036757    -50.4962458    380    4    1.1    0.9;
    643    1    15.52    6.3    0    0.6    0    1.00720194    0.525650745    150    8    1.1    0.9;
    649    1    40.94    19.2    0    5.2    0    1.02488155    -48.7121227    220    4    1.1    0.9;
    650    1    17.22    4.4    0    1.71    0    1.02056084    13.507057    110    8    1.1    0.9;
    656    1    -0.15    -1.93    0    0    0    1.02794998    19.6223421    220    8    1.1    0.9;
    658    1    258.4    66.7    0    5.87    0    1.03322619    -17.2833706    220    5    1.1    0.9;
    659    1    -0    -0    0.174507    73.977052    0    1.01741948    4.51142222    380    2    1.1    0.9;
    661    1    -0    -0    0    0.6    0    1.03240723    2.59349543    380    5    1.1    0.9;
    662    1    0    -0    0    4.14    0    1.02415111    12.5718945    380    8    1.1    0.9;
    666    1    -5.61    -2.79    0    150.93    0    1.02652303    -5.3505465    380    5    1.1    0.9;
    676    1    109.3    35.4    0    1.91    0    1.01484534    7.32832518    150    8    1.1    0.9;
    678    1    232.1    89.8    0    0.09    0    0.992477609    -18.1941403    220    5    1.1    0.9;
    682    2    0    0    0    0    0    1.065269    -9.73250946    220    5    1.1    0.9;
    686    2    0    0    0    0    0    1.018064    -46.8560181    220    4    1.1    0.9;
    687    1    -0    0    0    5.6    0    1.06135433    -2.92223681    220    5    1.1    0.9;
    693    1    -0    0    0    93.75    0    1.06033765    -40.3652213    380    4    1.1    0.9;
    695    1    96.41    26.5    0    0.08    0    1.00103697    -38.2193303    220    4    1.1    0.9;
    698    2    0    0    0    0    0    1.001541    -29.8274397    220    10    1.1    0.9;
    699    1    36.54    8.4    0    6.58    0    1.01596327    -52.9746867    220    4    1.1    0.9;
    702    1    -0    -0    0    0.48    0    1.00720253    -35.6812266    150    10    1.1    0.9;
    706    1    114.8    22.8    0    5.66    0    1.01376033    -44.3441078    220    4    1.1    0.9;
    707    1    83.99    21.2    0    5.36    0    1.05156361    -25.5199191    220    5    1.1    0.9;
    709    1    0    0    0    0    0    1.06640814    -42.282389    380    4    1.1    0.9;
    710    1    76.38    5.1    0    3.97    0    1.05056422    -45.4140959    220    4    1.1    0.9;
    712    1    110.4    41.9    0    1.88    0    1.00975741    1.93328398    150    8    1.1    0.9;
    718    1    135.11    41    0    5.31    0    1.03169195    -24.9449857    220    5    1.1    0.9;
    720    1    -0    -0    0    23.554121    0    0.976749843    -27.2289091    380    5    1.1    0.9;
    722    1    0    -0    0    0.78    0    1.0113544    2.54409026    150    8    1.1    0.9;
    726    1    400.3    189.9    0    0.53    0    1.05203945    -3.78061364    220    5    1.1    0.9;
    731    1    0    0    0    61.48    0    1.04587393    -50.0813401    380    4    1.1    0.9;
    733    1    58.36    10.7    0    8.41    0    1.00464296    7.79738611    110    8    1.1    0.9;
    739    2    0    0    0    0    0    1.040583    -42.6189054    380    4    1.1    0.9;
    742    1    0    -0    0    2.83    0    1.06152463    -2.92374502    220    5    1.1    0.9;
    747    1    69.58    16    0    3.03    0    1.07172951    -25.9995545    220    5    1.1    0.9;
    749    2    0    0    0    0    0    1.0548    -28.2929355    220    5    1.1    0.9;
    750    1    -0    -0    0    18.63    0    1.04031695    -24.1398451    220    5    1.1    0.9;
    751    2    0    0    0    0    0    1.023645    -43.9910023    220    4    1.1    0.9;
    754    1    132.1    32.4    0    58.29    0    1.04926843    -45.1436084    380    4    1.1    0.9;
    757    1    0    0    0    0    0    1.0146461    -13.5017586    380    5    1.1    0.9;
    766    1    -0    0    0    7.85    0    1.04451229    -20.8454767    220    5    1.1    0.9;
    769    1    152.57    40    0    6.12    0    1.02624259    -9.9970022    220    5    1.1    0.9;
    772    1    343.9    141.9    0    5.55    0    1.03157673    -14.2110145    220    5    1.1    0.9;
    775    1    -55.14    -27.14    0    0    0    1.04988828    8.57288025    150    8    1.1    0.9;
    776    2    0    0    0    0    0    1.029038    -13.2276073    220    5    1.1    0.9;
    778    2    0    0    0    0    0    1.051035    -6.56420813    220    5    1.1    0.9;
    780    2    0    0    0    0    0    1.006139    -44.9690695    220    10    1.1    0.9;
    784    1    -26    -14.72    0    0    0    1.02687779    6.01308663    150    8    1.1    0.9;
    785    1    -0    -0    0    4.03    0    1.03296482    -33.9007592    220    10    1.1    0.9;
    789    1    -0    -0    0    6.63    0    1.04801207    -5.98398102    220    5    1.1    0.9;
    790    1    -0.15    -1    0    0.42    0    1.05740619    13.7922394    110    8    1.1    0.9;
    792    1    295.3    41.9    0    0    0    1.00766268    -3.77366427    150    2    1.1    0.9;
    795    2    0    0    0    0    0    1.039638    -15.3029207    220    5    1.1    0.9;
    797    1    2    114.6    0    16.15    0    1.01727157    -39.8635328    220    4    1.1    0.9;
    800    1    50.56    18    0    0.11    0    1.03562908    -11.6568866    220    5    1.1    0.9;
    803    2    0    0    0    0    0    1.04396    -24.8487558    220    5    1.1    0.9;
    804    1    -0    -0    0    7.26    0    1.05807589    -7.49442542    220    5    1.1    0.9;
    805    1    124.5    29.6    0    15.4    0    1.0527705    -11.1255202    220    5    1.1    0.9;
    806    1    -0    -0    0    32.02    0    1.00007319    9.17146058    380    8    1.1    0.9;
    807    2    0    0    0    0    0    1.057043    -38.4454728    380    4    1.1    0.9;
    808    1    24.53    8.6    0    7.01    0    1.02286354    -50.3899607    220    4    1.1    0.9;
    809    1    0    -0    0    58.088687    0    1.03088303    0.77793603    380    5    1.1    0.9;
    814    1    287.7    16.3    0    12.86    0    1.02407596    -50.5776992    380    4    1.1    0.9;
    819    1    0    -0    0    0.22    0    1.05327054    -0.631061904    220    5    1.1    0.9;
    823    2    0    0    0    0    0    1.044347    -1.69031795    380    5    1.1    0.9;
    838    1    615.81    286.69    0    101.04    0    1.03190787    4.86669952    150    8    1.1    0.9;
    839    1    -0    -0    0    8.17514    0    1.02709987    -0.539625402    380    5    1.1    0.9;
    849    1    0    0    0    0    0    1.04105162    -41.9001947    380    4    1.1    0.9;
    851    2    0    0    0    0    0    1.006263    -16.9858379    220    5    1.1    0.9;
    854    1    49.96    7.5    0    8.86    0    1.02872485    -54.2131743    220    4    1.1    0.9;
    858    2    0    0    0    0    0    1.035299    1.9562479    380    5    1.1    0.9;
    869    1    94.2    5.5    0    6.51    0    1.02365942    -47.0098069    220    4    1.1    0.9;
    870    1    110    3.4    0    11.95    0    1.03993647    -24.2973426    220    5    1.1    0.9;
    871    1    108.89    -21.76    0    3.72    0    1.05318121    -11.9834798    220    5    1.1    0.9;
    878    1    0    -0    0    25.28    0    1.03230666    10.8488698    150    8    1.1    0.9;
    883    1    192.5    78.3    0    6.65    0    1.01916915    -10.0345052    220    5    1.1    0.9;
    891    2    0    0    0    0    0    1.063198    -18.7472597    380    5    1.1    0.9;
    892    1    -0    -0    0    9.1    0    1.06836975    -34.7608238    220    5    1.1    0.9;
    898    1    25.63    7.9    0    0.77    0    1.01729906    14.8498384    110    8    1.1    0.9;
    900    1    0    0    0    0.15    0    1.04549764    -15.4917277    220    5    1.1    0.9;
    903    1    82.69    20.1    0    1.36    0    1.07169144    -26.024808    220    5    1.1    0.9;
    905    1    631.71    -54.16    0    7.534129    0    1.03415475    -15.0930566    380    5    1.1    0.9;
    907    1    -0    -0    0    0.05    0    1.04252252    -9.68176364    220    5    1.1    0.9;
    908    1    125.9    -0.5    0    0.21    0    1.06252047    -7.96357006    220    5    1.1    0.9;
    913    2    0    0    0    0    0    1.032774    1.09984195    380    2    1.1    0.9;
    916    2    0    0    0    0    0    1.024009    -37.9305289    220    4    1.1    0.9;
    919    1    -0    0    0    13.89    0    1.01578271    12.8767828    380    8    1.1    0.9;
    920    1    34.44    8.5    0    1.11    0    1.04394977    -20.4527008    220    5    1.1    0.9;
    923    1    62.07    14.7    0    4.84    0    1.03544692    -22.70209    220    5    1.1    0.9;
    928    1    112.9    19.3    0    17.34    0    1.01204187    1.42034091    150    8    1.1    0.9;
    929    1    43.75    12.4    0    9.35    0    1.02398594    -46.1652953    220    4    1.1    0.9;
    930    2    0    0    0    0    0    1.063763    -37.7914519    380    4    1.1    0.9;
    932    1    77.59    12.3    0    5.1    0    1.03071627    -53.7451307    220    4    1.1    0.9;
    933    1    -0    0    0    22.75    0    1.018924    -21.5444222    220    5    1.1    0.9;
    935    1    -0    0    0    9.46    0    1.04635247    -24.2437246    220    5    1.1    0.9;
    947    1    90.7    5.8    0    4.1    0    0.989556856    -49.542695    220    4    1.1    0.9;
    948    1    15.82    4    0    0.7    0    0.990814021    -55.5557672    150    10    1.1    0.9;
    950    1    69.08    22.6    0    0.54    0    1.0147492    1.12749363    150    8    1.1    0.9;
    953    1    108.7    -12.15    0    37.11    0    1.06394849    -12.5860434    380    5    1.1    0.9;
    954    1    66.27    13.6    0    0.67    0    1.04308684    -21.2888688    220    5    1.1    0.9;
    955    1    244.2    152.7    0    0    0    1.00903605    -8.72422716    150    2    1.1    0.9;
    957    1    65.77    16.1    0    1.66    0    1.01472111    -46.4033073    220    4    1.1    0.9;
    960    1    -0    -0    0    108.728602    0    1.06282    -8.94481581    380    5    1.1    0.9;
    962    1    42.55    17.1    0    1.67    0    1.04034411    -46.0351111    220    4    1.1    0.9;