function mpc = case3120sp_res
%CASE3120SP_RES

%% MATPOWER Case Format : Version 2
mpc.version = '2';

%%-----  Power Flow Data  -----%%
%% system MVA base
mpc.baseMVA = 100;

%% bus data
%	bus_i	type	Pd	Qd	Gs	Bs	area	Vm	Va	baseKV	zone	Vmax	Vmin
mpc.bus = [
	1	1	0	0	0	0	1	1.08941183	-2.52773107	220	1	1.11	0.95;
	2	1	0	0	0	0	1	1.09292402	-0.762234474	220	1	1.11	0.95;
	3	1	0	0	0	0	1	1.0697841	-26.0403822	220	1	1.11	0.95;
	4	1	0	0	0	0	1	1.0697395	-26.0495624	220	1	1.11	0.95;
	5	1	0	0	0	0	1	1.09772291	-28.2418611	220	1	1.11	0.95;
	6	1	0	0	0	0	1	1.05875042	-7.50190834	220	1	1.11	0.95;
	7	1	0	0	0	0	1	1.05873586	-7.50384674	220	1	1.11	0.95;
	8	1	0	0	0	0	1	1.06669099	-15.943489	220	1	1.11	0.95;
	9	1	0	0	0	0	1	1.06694487	-15.9279302	220	1	1.11	0.95;
	10	1	0	0	0	0	1	1.0763045	-20.218878	220	1	1.11	0.95;
	11	1	0	0	0	0	1	1.01050319	-11.8250199	400	1	1.05	0.95;
	12	1	0	0	0	0	1	1.01056898	-11.8163248	400	1	1.05	0.95;
	13	1	0	0	0	0	1	0.9835887	-16.1295262	400	1	1.05	0.95;
	14	1	0	0	0	0	1	1.01458557	-16.5386951	220	1	1.11	0.95;
	15	1	0	0	0	0	1	1.01440738	-16.5424364	220	1	1.11	0.95;
	16	1	0	0	0	0	1	0.983611233	-21.094561	220	1	1.11	0.95;
	17	1	0	0	0	0	1	0.981304384	-21.1444655	220	1	1.11	0.95;
	18	1	0	0	0	0	1	1.01211238	-10.4472107	400	1	1.05	0.95;
	19	1	0	0	0	0	1	1.01217647	-10.4378402	400	1	1.05	0.95;
	20	1	0	0	0	0	1	0.989173898	-19.908482	400	1	1.05	0.95;
	21	1	0	0	0	0	1	1.00431887	-16.1670086	400	1	1.05	0.95;
	22	2	10	20	0	0	1	1.06818	-20.1350196	220	1	1.11	0.95;
	23	2	10	20	0	0	1	1.06818	-20.1357277	220	1	1.11	0.95;
	24	1	0	0	0	0	1	1.06579043	-6.67282509	220	1	1.11	0.95;
	25	1	0	0	0	0	1	1.06587886	-6.68428478	220	1	1.11	0.95;
	26	1	0	0	0	0	1	1.01518595	-19.9083955	220	1	1.11	0.95;
	27	1	0	0	0	0	1	1.01516186	-19.9058339	220	1	1.11	0.95;
	28	1	0	0	0	0	1	1.0173166	-15.7194658	220	1	1.11	0.95;
	29	1	0	0	0	0	1	1.0172247	-15.7358045	220	1	1.11	0.95;
	30	1	0	0	0	0	1	1.07245887	-4.2039675	220	1	1.11	0.95;
	31	1	0	0	0	0	1	1.07234137	-4.22702262	220	1	1.11	0.95;
	32	1	0	0	0	0	1	1.00575752	-14.9959994	400	1	1.05	0.95;
	33	1	0	0	0	0	1	1.00572979	-15.0014896	400	1	1.05	0.95;
	34	1	0	0	0	0	1	0.999360627	-18.4246746	400	1	1.05	0.95;
	35	2	32.16	52.07	0	0	1	1.09545	-2.36012763	220	1	1.11	0.95;
	36	2	46.36	92.07	0	0	1	1.09545	-0.576099369	220	1	1.11	0.95;
	37	3	60	120	0	0	1	1.04	0	400	1	1.05	0.95;
	38	2	60	120	0	0	1	1.04	-0.00638503691	400	1	1.05	0.95;
	39	1	0	0	0	0	1	1.01019478	-18.1362527	220	1	1.11	0.95;
	40	1	0	0	0	0	1	1.01010549	-18.1395491	220	1	1.11	0.95;
	41	1	0	0	0	0	1	1.03381104	-1.89785347	400	1	1.05	0.95;
	42	1	0	0	0	0	1	1.03379488	-1.90030295	400	1	1.05	0.95;
	43	1	0	0	0	0	1	1.00983765	-16.8783478	220	1	1.11	0.95;
	44	1	0	0	0	0	1	1.0044156	-16.1674894	400	1	1.05	0.95;
	45	1	0	0	0	0	1	1.04862072	-9.47637015	220	1	1.11	0.95;
	46	1	0	0	0	0	1	1.04870292	-9.48475605	220	1	1.11	0.95;
	47	1	0	0	0	0	1	1.06630406	-7.42950843	220	2	1.11	0.95;
	48	1	0	0	0	0	1	1.06880986	-4.36318399	220	2	1.11	0.95;
	49	1	0	0	0	0	1	1.08033059	-2.54970541	220	2	1.11	0.95;
	50	1	0	0	0	0	1	1.08031328	-2.55305882	220	2	1.11	0.95;
	51	1	0	0	0	0	1	1.04200963	-8.38800453	220	2	1.11	0.95;
	52	1	3.97	1	0	0	1	1.08297327	-4.6452358	220	2	1.11	0.95;
	53	1	0	0	0	0	1	1.08303368	-4.63440555	220	2	1.11	0.95;
	54	1	0	0	0	0	1	1.0218188	-3.76611726	400	2	1.05	0.95;
	55	2	13	30	0	0	1	1.09091	-6.97115309	220	2	1.11	0.95;
	56	2	39.35	90.07	0	0	1	1.09091	-6.98786183	220	2	1.11	0.95;
	57	2	26	60	0	0	1	1.09091	-6.96164601	220	2	1.11	0.95;
	58	2	26	50	0	0	1	1.035	-6.72246733	400	2	1.05	0.95;
	59	2	26	50	0	0	1	1.035	-6.71660421	400	2	1.05	0.95;
	60	1	0	0	0	0	1	1.07722093	-5.25161322	220	2	1.11	0.95;
	61	1	0	0	0	0	1	1.04671515	-3.61243846	400	2	1.05	0.95;
	62	1	0	0	0	0	1	1.04670543	-3.61377951	400	2	1.05	0.95;
	63	1	0	0	0	0	1	1.03052197	-7.7996561	400	2	1.05	0.95;
	64	1	0	0	0	0	1	1.05349974	-6.55772945	220	2	1.11	0.95;
	65	1	0	0	0	0	1	1.05348343	-6.55086852	220	2	1.11	0.95;
	66	1	0	0	0	0	1	1.03111208	-4.98813971	400	2	1.05	0.95;
	67	1	0	0	0	0	1	1.03111607	-4.98092931	400	2	1.05	0.95;
	68	2	13	30	0	0	1	1.08636	-0.911009924	220	2	1.11	0.95;
	69	2	26	60	0	0	1	1.08636	-0.895734744	220	2	1.11	0.95;
	70	2	0	2.25	0	0	1	1.03245218	-2.76824699	400	2	1.05	0.95;
	71	2	26	60	0	0	1	1.0325	-2.76829663	400	2	1.05	0.95;
	72	1	0	0	0	0	1	1.07506779	-7.72428148	220	2	1.11	0.95;
	73	1	0	0	0	0	1	1.07506827	-7.72231302	220	2	1.11	0.95;
	74	1	0	0	0	0	1	1.07683246	-4.80270373	220	2	1.11	0.95;
	75	1	0	0	0	0	1	1.07686602	-4.80782696	220	2	1.11	0.95;
	76	1	0	0	0	0	1	1.08142962	-7.41484041	220	2	1.11	0.95;
	77	1	0	0	0	0	1	1.08143394	-7.41991643	220	2	1.11	0.95;
	78	1	0	0	0	0	1	1.04352806	-3.34848858	400	2	1.05	0.95;
	79	1	0	0	0	0	1	1.04353385	-3.35169809	400	2	1.05	0.95;
	80	1	0	0	0	0	1	1.07332172	-4.23712189	220	2	1.11	0.95;
	81	1	0	0	0	0	1	1.0746033	-4.22540678	220	2	1.11	0.95;
	82	1	0	0	0	0	1	1.05658498	-5.17184933	220	2	1.11	0.95;
	83	1	0	0	0	0	1	1.07445773	-2.64886498	220	3	1.11	0.95;
	84	1	6.41	2.01	0	0	1	1.0771966	-3.13601693	220	3	1.11	0.95;
	85	1	13.89	5.02	0	0	1	1.07701123	-3.15010083	220	3	1.11	0.95;
	86	1	0	0	0	0	1	1.0697121	-1.00933705	220	3	1.11	0.95;
	87	1	0	0	0	0	1	1.06984809	-0.998977625	220	3	1.11	0.95;
	88	1	0	0	0	0	1	1.08148313	0.671078495	220	3	1.11	0.95;
	89	1	0	0	0	0	1	1.08150392	0.66713801	220	3	1.11	0.95;
	90	1	0	0	0	0	1	1.04151467	-3.05661273	220	3	1.11	0.95;
	91	1	0	0	0	0	1	1.04127707	-3.05683582	220	3	1.11	0.95;
	92	2	28	70	0	0	1	1.08182	-0.123152391	220	3	1.11	0.95;
	93	2	28	68	0	0	1	1.08182	-0.239064143	220	3	1.11	0.95;
	94	1	2.78	1.91	0	0	1	1.0616272	-0.374265407	220	3	1.11	0.95;
	95	1	0	0	0	0	1	1.06164408	-0.377356608	220	3	1.11	0.95;
	96	2	32	142	0	0	1	1.0375	1.41046167	400	3	1.05	0.95;
	97	1	0	0	0	0	1	1.03746657	1.38310322	400	3	1.05	0.95;
	98	1	0	0	0	0	1	1.04064936	-1.35181375	220	3	1.11	0.95;
	99	1	0	0	0	0	1	1.07779285	0.440786248	220	3	1.11	0.95;
	100	1	0	0	0	0	1	1.07779328	0.434291846	220	3	1.11	0.95;
	101	1	38.8	-2.7	0	0	1	1.07753723	-2.40444829	220	3	1.11	0.95;
	102	1	0	0	0	0	1	1.077494	-2.40563733	220	3	1.11	0.95;
	103	1	0	0	0	0	1	1.07476389	-0.0951675387	220	3	1.11	0.95;
	104	1	0	0	0	0	1	1.07468493	-0.0976347731	220	3	1.11	0.95;
	105	1	0	0	0	0	1	1.07979428	-2.1612264	220	3	1.11	0.95;
	106	1	0	0	0	0	1	1.07980953	-2.1628074	220	3	1.11	0.95;
	107	1	0	0	0	0	1	1.03862477	-1.1764805	400	3	1.05	0.95;
	108	1	0	0	0	0	1	1.03865454	-1.16995554	400	3	1.05	0.95;
	109	1	0	0	0	0	1	1.07651402	0.323546258	220	3	1.11	0.95;
	110	1	0	0	0	0	1	1.07649194	0.326702617	220	3	1.11	0.95;
	111	1	0	0	0	0	1	1.05901717	0.304672113	220	3	1.11	0.95;
	112	1	0	0	0	0	1	1.05893658	0.296272848	220	3	1.11	0.95;
	113	2	38.41	12.71	0	0	1	1.07727	-1.34694468	220	3	1.11	0.95;
	114	1	0	0	0	0	1	1.07724997	-1.35455651	220	3	1.11	0.95;
	115	1	0	0	0	0	1	1.07732166	-3.11842311	220	3	1.11	0.95;
	116	1	0	0	0	0	1	1.07731568	-3.12119299	220	3	1.11	0.95;
	117	1	0	0	0	0	1	1.02832232	-3.03324051	220	3	1.11	0.95;
	118	1	0	0	0	0	1	1.02823832	-3.03005643	220	3	1.11	0.95;
	119	2	10	44	0	0	1	1.08182	1.00178723	220	3	1.11	0.95;
	120	2	10	44	0	0	1	1.08182	0.985307697	220	3	1.11	0.95;
	121	2	7	18	0	0	1	1.08182	0.230956201	220	3	1.11	0.95;
	122	2	8	21	0	0	1	1.08182	0.244392465	220	3	1.11	0.95;
	123	1	0	0	0	0	1	1.0740047	-2.20986773	220	3	1.11	0.95;
	124	1	59.4	11.61	0	0	1	1.07403998	-2.21448926	220	3	1.11	0.95;
	125	1	0	0	0	0	1	1.03915261	-3.45098109	220	3	1.11	0.95;
	126	1	0	0	0	0	1	1.05891461	0.325488951	220	3	1.11	0.95;
	127	1	0	0	0	0	1	1.05894066	0.32202567	220	3	1.11	0.95;
	128	1	0	0	0	0	1	1.06242053	-0.594799812	220	3	1.11	0.95;
	129	1	0	0	0	0	1	1.06256477	-0.59071875	220	3	1.11	0.95;
	130	1	0	0	0	0	1	1.0337015	-0.583398231	400	3	1.05	0.95;
	131	1	0	0	0	0	1	1.0337015	-0.583398231	400	3	1.05	0.95;
	132	2	0	1.78	0	0	1	1.07734563	-0.742198223	220	3	1.11	0.95;
	133	2	9	20	0	0	1	1.07727	-0.743263468	220	3	1.11	0.95;
	134	2	6	15	0	0	1	1.07273	-2.49862478	220	3	1.11	0.95;
	135	1	0	0	0	0	1	1.07255893	-2.498848	220	3	1.11	0.95;
	136	1	0	0	0	0	1	1.04232767	-3.24919222	400	3	1.05	0.95;
	137	1	0	0	0	0	1	1.04239369	-3.24817207	400	3	1.05	0.95;
	138	1	0	0	0	0	1	1.04205556	-1.45392961	400	3	1.05	0.95;
	139	1	0	0	0	0	1	1.04206371	-1.45583319	400	3	1.05	0.95;
	140	1	0	0	0	0	1	1.0352518	-3.75765549	220	3	1.11	0.95;
	141	1	0	0	0	0	1	1.03537938	-3.7538808	220	3	1.11	0.95;
	142	2	18.2	37.21	0	0	1	1.08182	1.8920725	220	3	1.11	0.95;
	143	2	41.52	73.01	0	0	1	1.08182	1.9045702	220	3	1.11	0.95;
	144	2	28	66	0	0	1	1.0375	0.956030947	400	3	1.05	0.95;
	145	1	0	0	0	0	1	1.0374586	0.950423933	400	3	1.05	0.95;
	146	1	0	0	0	0	1	1.07659738	-2.42726756	220	3	1.11	0.95;
	147	1	0	0	0	0	1	1.07663346	-2.41948081	220	3	1.11	0.95;
	148	1	0	0	0	0	1	1.08020065	0.0605852555	220	3	1.11	0.95;
	149	1	0	0	0	0	1	1.07843209	-2.14400553	220	3	1.11	0.95;
	150	2	0	-0.79	0	0	1	1.04159325	-3.0571941	220	3	1.11	0.95;
	151	2	0	-0.79	0	0	1	1.04135422	-3.05742539	220	3	1.11	0.95;
	152	2	7.7	20	0	0	1	1.06818	-12.242375	220	4	1.11	0.95;
	153	2	7.8	20	0	0	1	1.06818	-12.2505401	220	4	1.11	0.95;
	154	1	0	0	0	0	1	1.04520124	-9.72863775	220	4	1.11	0.95;
	155	1	0	0	0	0	1	1.04520168	-9.72969237	220	4	1.11	0.95;
	156	1	0	0	0	0	1	1.01236972	-11.2772959	220	4	1.11	0.95;
	157	1	0	0	0	0	1	1.06285848	-8.28116602	220	4	1.11	0.95;
	158	1	0	0	0	0	1	1.06277287	-8.28913241	220	4	1.11	0.95;
	159	1	0	0	0	0	1	1.00706134	-6.79594237	400	4	1.05	0.95;
	160	1	0	0	0	0	1	1.00704222	-6.79597113	400	4	1.05	0.95;
	161	1	0	0	0	0	1	1.00466306	-21.4293791	220	4	1.11	0.95;
	162	1	0	0	0	0	1	1.06041497	-33.2560734	220	4	1.11	0.95;
	163	1	0	0	0	0	1	1.06041497	-33.2560734	220	4	1.11	0.95;
	164	1	0	0	0	0	1	1.03193829	-28.1553751	220	4	1.11	0.95;
	165	1	0	0	0	0	1	1.03193829	-28.1553751	220	4	1.11	0.95;
	166	1	0	0	0	0	1	1.00730344	-11.5603072	220	4	1.11	0.95;
	167	2	0	-13.01	0	0	1	1.0530173	-16.2785958	220	4	1.11	0.95;
	168	1	0	0	0	0	1	1.05304215	-16.282969	220	4	1.11	0.95;
	169	2	12	30	0	0	1	1.08182	-31.4622829	220	4	1.11	0.95;
	170	2	19.91	36.57	0	0	1	1.08182	-31.4434338	220	4	1.11	0.95;
	171	2	12	30	0	0	1	1.0325	-24.3579339	400	4	1.05	0.95;
	172	2	12	30	0	0	1	1.0325	-24.3430919	400	4	1.05	0.95;
	173	1	0	0	0	0	1	0.960756904	-21.0739824	220	4	1.11	0.95;
	174	1	0	0	0	0	1	0.960814188	-21.0821819	220	4	1.11	0.95;
	175	1	0	0	0	0	1	0.996009016	-20.7241006	220	4	1.11	0.95;
	176	1	0	0	0	0	1	0.996145026	-20.7168614	220	4	1.11	0.95;
	177	2	30.5	64.2	0	0	1	1.09091	-5.01452834	220	4	1.11	0.95;
	178	2	58.9	96	0	0	1	1.09091	-5.01308445	220	4	1.11	0.95;
	179	1	0	0	0	0	1	1.09091	-5.01308445	220	4	1.11	0.95;
	180	2	26.5	64.2	0	0	1	1.03	-3.90044989	400	4	1.05	0.95;
	181	1	0	0	0	0	1	1.02989381	-3.90240109	400	4	1.05	0.95;
	182	1	0	0	0	0	1	1.06190679	-33.1397592	220	4	1.11	0.95;
	183	1	0	0	0	0	1	1.06190679	-33.1397592	220	4	1.11	0.95;
	184	1	0	0	0	0	1	1.01183836	-5.57687497	400	4	1.05	0.95;
	185	1	0	0	0	0	1	0.975357022	-12.6353889	400	4	1.05	0.95;
	186	1	0	0	0	0	1	1.01091862	-5.10102113	400	4	1.05	0.95;
	187	1	0	0	0	0	1	1.01097846	-5.08957507	400	4	1.05	0.95;
	188	2	12	30	0	0	1	1.05455	-16.3892643	220	4	1.11	0.95;
	189	2	23.8	60	0	0	1	1.05455	-16.410076	220	4	1.11	0.95;
	190	2	38	64	0	0	1	1.005	-10.5289988	400	4	1.05	0.95;
	191	1	0	0	0	0	1	0.999026506	-28.8801616	220	4	1.11	0.95;
	192	1	0	0	0	0	1	0.999088868	-28.8933872	220	4	1.11	0.95;
	193	1	0	0	0	0	1	1.05836868	-33.3623279	220	4	1.11	0.95;
	194	1	0	0	0	0	1	1.05835205	-33.3634917	220	4	1.11	0.95;
	195	1	0	0	0	0	1	1.00571416	-21.0992381	220	4	1.11	0.95;
	196	1	0	0	0	0	1	1.00560932	-21.1108337	220	4	1.11	0.95;
	197	1	0	0	0	0	1	0.970200438	-17.4721087	400	4	1.05	0.95;
	198	1	0	0	0	0	1	0.985954138	-16.2550213	220	4	1.11	0.95;
	199	1	0	0	0	0	1	0.985956455	-16.2488613	220	4	1.11	0.95;
	200	1	0	0	0	0	1	0.996679777	-21.8753836	220	4	1.11	0.95;
	201	1	0	0	0	0	1	1.04405706	-9.31524569	220	4	1.11	0.95;
	202	1	0	0	0	0	1	1.04400397	-9.32657196	220	4	1.11	0.95;
	203	1	0	0	0	0	1	1.0405504	-7.58739225	220	4	1.11	0.95;
	204	2	0	-7.17	0	0	1	0.997418575	-20.735045	220	4	1.11	0.95;
	205	1	0	0	0	0	1	0.973086737	-18.1492152	220	4	1.11	0.95;
	206	1	0	0	0	0	1	0.973130989	-18.130144	220	4	1.11	0.95;
	207	1	0	0	0	0	1	1.00084448	-27.2301549	220	5	1.11	0.95;
	208	1	0	0	0	0	1	1.08908455	-29.5778776	220	5	1.11	0.95;
	209	1	0	0	0	0	1	1.0359736	-28.3744327	400	5	1.05	0.95;
	210	1	0	0	0	0	1	1.03599098	-28.3706398	400	5	1.05	0.95;
	211	1	0	0	0	0	1	1.02357896	-28.4657074	400	5	1.05	0.95;
	212	1	0	0	0	0	1	1.0235924	-28.4713084	400	5	1.05	0.95;
	213	1	0	0	0	0	1	1.0038031	-34.3178887	400	5	1.05	0.95;
	214	1	0	0	0	0	1	1.00497228	-32.3529429	220	5	1.11	0.95;
	215	1	0	0	0	0	1	1.00499711	-32.3571104	220	5	1.11	0.95;
	216	1	0	0	0	0	1	1.0265618	-26.9792877	220	5	1.11	0.95;
	217	1	0	0	0	0	1	1.02644991	-26.984402	220	5	1.11	0.95;
	218	1	0	0	0	0	1	0.990980624	-24.3576022	400	5	1.05	0.95;
	219	1	0	0	0	0	1	0.990980624	-24.3576022	400	5	1.05	0.95;
	220	1	0	0	0	0	1	1.00207571	-30.0897296	400	5	1.05	0.95;
	221	1	0	0	0	0	1	1.00922956	-26.155073	220	5	1.11	0.95;
	222	1	0	0	0	0	1	1.00920233	-26.1633551	220	5	1.11	0.95;
	223	1	0	0	0	0	1	1.00962131	-31.1746689	220	5	1.11	0.95;
	224	1	0	0	0	0	1	1.0477133	-28.9501634	220	5	1.11	0.95;
	225	1	0	0	0	0	1	1.01685847	-29.3508204	400	5	1.05	0.95;
	226	1	0	0	0	0	1	1.01682473	-29.3495839	400	5	1.05	0.95;
	227	1	0	0	0	0	1	1.018957	-32.0301139	400	5	1.05	0.95;
	228	1	0	0	0	0	1	1.03986817	-28.6878895	220	5	1.11	0.95;
	229	1	0	0	0	0	1	1.03995709	-28.682899	220	5	1.11	0.95;
	230	1	0	0	0	70	1	1.04457283	-28.7320066	400	5	1.05	0.95;
	231	1	0	0	0	0	1	1.04455417	-28.7305961	400	5	1.05	0.95;
	232	1	0	0	0	0	1	0.993184672	-27.6688355	220	5	1.11	0.95;
	233	1	0	0	0	0	1	0.993113721	-27.6661404	220	5	1.11	0.95;
	234	1	0	0	0	0	1	0.996692513	-25.1913465	220	5	1.11	0.95;
	235	1	0	0	0	0	1	0.996589859	-25.2085607	220	5	1.11	0.95;
	236	2	11	40	0	0	1	1.0375	-28.1048923	400	5	1.05	0.95;
	237	2	5	10	0	0	1	1.0375	-28.1067339	400	5	1.05	0.95;
	238	1	0	0	0	0	1	1.04907135	-31.039591	220	5	1.11	0.95;
	239	1	0	0	0	0	1	1.04918182	-31.0389577	220	5	1.11	0.95;
	240	2	8	20	0	0	0	1.09091	3.92347961	220	0	1.11	0.95;
	241	1	9.86	2	0	0	1	1.04188107	-23.9904305	110	1	1.12	0.95;
	242	1	6.41	0	0	0	1	1.0621051	-30.9389779	110	1	1.12	0.95;
	243	1	9.37	0.6	0	0	1	1.06203732	-30.9359343	110	1	1.12	0.95;
	244	1	7.25	4	0	0	1	1.06432422	-19.7599215	110	1	1.12	0.95;
	245	1	0	0	0	0	1	1.06437869	-19.7792125	110	1	1.12	0.95;
	246	1	2.18	2.4	0	0	1	0.999546041	-23.2831556	110	1	1.12	0.95;
	247	1	5.12	4.91	0	0	1	0.999506554	-23.2853972	110	1	1.12	0.95;
	248	1	3.65	0.9	0	0	1	1.08150071	-3.54550966	110	1	1.12	0.95;
	249	1	3.85	1	0	0	1	1.07019326	-3.84106858	110	1	1.12	0.95;
	250	2	4.44	-1.76	0	0	1	1.08186798	-24.663416	110	1	1.12	0.95;
	251	2	2.5	0	0	0	1	1.08182	-24.6567085	110	1	1.12	0.95;
	252	1	17.76	1.2	0	0	1	1.08271239	-24.4149956	110	1	1.12	0.95;
	253	1	12.33	2.1	0	0	1	1.08328922	-24.2928426	110	1	1.12	0.95;
	254	1	7.41	0.99	0	0	1	1.08328914	-24.3044954	110	1	1.12	0.95;
	255	1	4.93	0	0	0	1	1.08503305	-24.0759287	110	1	1.12	0.95;
	256	1	4.93	0	0	0	1	1.08499311	-24.0937272	110	1	1.12	0.95;
	257	1	14.8	2.5	0	0	1	1.08364675	-24.2894297	110	1	1.12	0.95;
	258	1	5.42	1.1	0	0	1	1.08224354	-24.4991699	110	1	1.12	0.95;
	259	1	4.44	1	0	0	1	1.08223915	-24.5063009	110	1	1.12	0.95;
	260	1	2.96	0.5	0	0	1	1.08226475	-24.6894982	110	1	1.12	0.95;
	261	1	5.42	0.6	0	0	1	1.08221878	-24.6938094	110	1	1.12	0.95;
	262	1	0	0	0	0	1	1.08407055	-24.7084608	110	1	1.12	0.95;
	263	1	2.96	0.9	0	0	1	1.03831549	-22.915462	110	1	1.12	0.95;
	264	1	5.33	1.5	0	0	1	1.03841755	-22.9114545	110	1	1.12	0.95;
	265	1	3.45	0.7	0	0	1	1.0506331	-21.930872	110	1	1.12	0.95;
	266	1	3.45	0.7	0	0	1	1.05061157	-21.947538	110	1	1.12	0.95;
	267	2	4.34	1.8	0	0	1	1.07273	-15.2555731	110	1	1.12	0.95;
	268	2	4.34	1.8	0	0	1	1.06364	-9.68887299	110	1	1.12	0.95;
	269	1	6.25	2	0	0	1	1.05679041	-21.8399532	110	1	1.12	0.95;
	270	1	6.69	3	0	0	1	1.05681324	-21.8463689	110	1	1.12	0.95;
	271	1	0.49	0.2	0	0	1	1.06255398	-6.51565161	110	1	1.12	0.95;
	272	1	0.79	0.2	0	0	1	1.0624504	-6.53276294	110	1	1.12	0.95;
	273	1	1.18	-0.9	0	0	1	1.08589415	-1.62188411	110	1	1.12	0.95;
	274	1	4.74	0.5	0	0	1	1.06100602	-24.3507641	110	1	1.12	0.95;
	275	1	0	0	0	0	1	1.06099829	-24.3753479	110	1	1.12	0.95;
	276	1	3.16	0.1	0	0	1	1.0799934	-27.5018455	110	1	1.12	0.95;
	277	1	7.4	1.3	0	0	1	1.0645549	-24.567762	110	1	1.12	0.95;
	278	1	10.36	1.3	0	0	1	1.06444221	-24.5719945	110	1	1.12	0.95;
	279	1	2.27	1.11	0	0	1	1.07596289	-10.5717716	110	1	1.12	0.95;
	280	1	5.33	1.6	0	0	1	1.05667571	-22.659659	110	1	1.12	0.95;
	281	1	2.07	0.1	0	0	1	1.05673013	-22.6498457	110	1	1.12	0.95;
	282	2	1.87	0.09	0	0	1	1.0737217	-12.1154876	110	1	1.12	0.95;
	283	2	1.87	0.31	0	0	1	1.07352797	-12.1381825	110	1	1.12	0.95;
	284	1	8.58	3	0	0	1	1.04289712	-22.4448902	110	1	1.12	0.95;
	285	1	1.58	0.4	0	0	1	1.07065973	-3.77852605	110	1	1.12	0.95;
	286	1	4.44	1.1	0	0	1	1.07064108	-3.78256355	110	1	1.12	0.95;
	287	1	5.33	0.5	0	0	1	1.05875672	-9.73448045	110	1	1.12	0.95;
	288	1	4.64	0.4	0	0	1	1.05876932	-9.73191692	110	1	1.12	0.95;
	289	1	13.89	7.76	0	0	1	1.06851309	-3.16622071	110	1	1.12	0.95;
	290	1	19.52	11.23	0	0	1	1.06835116	-3.18642588	110	1	1.12	0.95;
	291	1	6.81	0.5	0	0	1	1.05195187	-26.408108	110	1	1.12	0.95;
	292	1	9.57	3.84	0	0	1	1.07612216	-10.527512	110	1	1.12	0.95;
	293	1	0	0	0	0	1	1.07621202	-10.5230649	110	1	1.12	0.95;
	294	1	8.38	0.8	0	0	1	1.05184817	-26.523852	110	1	1.12	0.95;
	295	1	0	0	0	0	1	1.05185103	-26.5352904	110	1	1.12	0.95;
	296	1	3.95	0.4	0	0	1	1.06869862	-25.0160465	110	1	1.12	0.95;
	297	1	5.42	0.6	0	0	1	1.0640542	-24.7481516	110	1	1.12	0.95;
	298	1	2.47	0.3	0	0	1	1.06399979	-24.7459819	110	1	1.12	0.95;
	299	1	0	0	0	0	1	1.0734192	-26.5035977	110	1	1.12	0.95;
	300	1	0.49	0.2	0	0	1	1.07345798	-26.5196907	110	1	1.12	0.95;
	301	2	0.17	0.3	0	0	1	1.04545	-23.5837717	110	1	1.12	0.95;
	302	2	0.06	0.1	0	0	1	1.04545	-23.590974	110	1	1.12	0.95;
	303	1	5.92	0.7	0	0	1	1.06242012	-29.5119111	110	1	1.12	0.95;
	304	1	0.3	0.1	0	0	1	1.08825945	-4.75171585	110	1	1.12	0.95;
	305	1	0.4	0.1	0	0	1	1.08513732	-4.49328106	110	1	1.12	0.95;
	306	1	10.06	7.01	0	0	1	1.08638277	-4.8063041	110	1	1.12	0.95;
	307	1	0.49	0.2	0	0	1	1.08511283	-4.49398419	110	1	1.12	0.95;
	308	1	8.09	1.3	0	0	1	1.04298807	-29.9974222	110	1	1.12	0.95;
	309	1	4.74	0.4	0	0	1	1.04304549	-30.004784	110	1	1.12	0.95;
	310	1	4.74	1.74	0	0	1	1.07008926	-11.6238975	110	1	1.12	0.95;
	311	1	2.86	-1.4	0	0	1	1.08712922	-4.84346672	110	1	1.12	0.95;
	312	1	2.86	-1.4	0	0	1	1.08719531	-4.83648184	110	1	1.12	0.95;
	313	1	3.08	2	0	0	1	1.08776728	-20.9369492	110	1	1.12	0.95;
	314	1	0	0	0	0	1	1.08531211	-1.57836854	110	1	1.12	0.95;
	315	1	0	0	0	0	1	1.08541933	-1.61184779	110	1	1.12	0.95;
	316	2	20	40	0	0	1	1	2.63745397	24	1	1.12	0.95;
	317	1	4.93	1	0	0	1	1.07691519	-28.826945	110	1	1.12	0.95;
	318	1	2.96	0.7	0	0	1	1.07691708	-28.8425499	110	1	1.12	0.95;
	319	1	3.95	1	0	0	1	1.08471507	-29.0547529	110	1	1.12	0.95;
	320	1	1.48	0.2	0	0	1	1.08455492	-27.8999681	110	1	1.12	0.95;
	321	1	0	0	0	45	1	1.10757658	-28.2389216	16	1	1.12	0.95;
	322	2	0	-3.42	0	0	1	1.04558698	-18.14644	110	1	1.12	0.95;
	323	1	5.42	1	0	0	1	1.08235572	-24.5703176	110	1	1.12	0.95;
	324	1	6.41	1	0	0	1	1.0823507	-24.5629452	110	1	1.12	0.95;
	325	1	1.97	0	0	0	1	1.05758955	-32.3348853	110	1	1.12	0.95;
	326	1	4.74	0.7	0	0	1	1.06958447	-21.7670337	110	1	1.12	0.95;
	327	1	0	0	0	0	1	1.06956403	-21.7702994	110	1	1.12	0.95;
	328	1	9.99	5.11	0	0	1	1.06604545	-9.93148564	110	1	1.12	0.95;
	329	1	7.68	4.5	0	0	1	1.06599458	-9.9371718	110	1	1.12	0.95;
	330	1	18.57	4	0	0	1	1.04200761	-22.8036985	110	1	1.12	0.95;
	331	1	17.67	7.31	0	0	1	1.04206469	-22.805383	110	1	1.12	0.95;
	332	1	5.92	1	0	0	1	1.06486965	-32.38975	110	1	1.12	0.95;
	333	1	6.91	1	0	0	1	1.0648735	-32.378206	110	1	1.12	0.95;
	334	1	36.5	2	0	0	1	1.07183614	-28.4308135	110	1	1.12	0.95;
	335	1	3.95	0.5	0	0	1	1.07398666	-28.3198789	110	1	1.12	0.95;
	336	1	3.75	0.7	0	0	1	1.07945222	-3.84427761	110	1	1.12	0.95;
	337	1	2.07	0.4	0	0	1	1.0794508	-3.8634304	110	1	1.12	0.95;
	338	1	9.67	3.56	0	0	1	1.06301418	-12.9612266	110	1	1.12	0.95;
	339	1	0	0	0	0	1	1.0630208	-12.961261	110	1	1.12	0.95;
	340	1	6.41	0.6	0	0	1	1.0582787	-32.6274169	110	1	1.12	0.95;
	341	1	4.99	1.2	0	0	1	1.05949697	-19.8896606	110	1	1.12	0.95;
	342	1	6.79	2.5	0	0	1	1.06112768	-19.0861826	110	1	1.12	0.95;
	343	1	1.97	1.3	0	0	1	1.04849801	-27.7796316	110	1	1.12	0.95;
	344	1	27.67	20.42	0	0	1	1.08449883	-2.14497874	110	1	1.12	0.95;
	345	1	20.43	20.62	0	0	1	1.06860821	-3.64207856	110	1	1.12	0.95;
	346	1	36.5	12.01	0	0	1	1.08481725	-1.67092301	110	1	1.12	0.95;
	347	1	4.56	3	0	0	1	1.04679114	-21.7958269	110	1	1.12	0.95;
	348	1	9.96	0.9	0	0	1	1.05969816	-24.5003686	110	1	1.12	0.95;
	349	1	0	0	0	0	1	1.05978906	-24.4887779	110	1	1.12	0.95;
	350	1	7	2	0	0	1	1.07292679	-21.4016911	110	1	1.12	0.95;
	351	1	0	0	0	0	1	1.07290004	-21.4061238	110	1	1.12	0.95;
	352	1	13.32	1.4	0	0	1	1.0639604	-25.1910823	110	1	1.12	0.95;
	353	1	2.47	0	0	0	1	1.05682172	-32.0453511	110	1	1.12	0.95;
	354	1	1.97	0	0	0	1	1.05682161	-32.0402102	110	1	1.12	0.95;
	355	1	5.92	1.56	0	0	1	1.05421735	-20.8731872	110	1	1.12	0.95;
	356	1	5.92	1.56	0	0	1	1.05421698	-20.8602518	110	1	1.12	0.95;
	357	1	0	0	0	0	1	1.03490794	-22.4101122	110	1	1.12	0.95;
	358	1	0	0	0	0	1	1.03490338	-22.4015511	110	1	1.12	0.95;
	359	1	0.18	0.05	0	0	1	1.05661018	-20.0109389	110	1	1.12	0.95;
	360	1	0	0	0	0	1	1.05377471	-20.4446512	110	1	1.12	0.95;
	361	1	15.19	7.91	0	0	1	1.07402516	-11.0755842	110	1	1.12	0.95;
	362	1	0	0	0	0	1	1.07653357	-10.5221024	110	1	1.12	0.95;
	363	1	3.65	0.8	0	0	1	1.06361491	-9.52928303	110	1	1.12	0.95;
	364	1	3.65	0.8	0	0	1	1.06365302	-9.54253956	110	1	1.12	0.95;
	365	1	1.97	0.4	0	0	1	1.08155623	-24.6090155	110	1	1.12	0.95;
	366	1	6.41	1	0	0	1	1.07982766	-24.1705817	110	1	1.12	0.95;
	367	1	6.69	2.2	0	0	1	1.05336128	-20.2613484	110	1	1.12	0.95;
	368	1	5.53	1.8	0	0	1	1.05051442	-20.2614757	110	1	1.12	0.95;
	369	2	0.15	0.67	0	0	1	1.07273	-3.53444221	110	1	1.12	0.95;
	370	1	18.52	12.25	0	0	1	1.06570925	-3.64914991	110	1	1.12	0.95;
	371	1	14.09	6.13	0	0	1	1.0657121	-3.6422348	110	1	1.12	0.95;
	372	1	1.97	0.4	0	0	1	1.08715124	-1.76657664	110	1	1.12	0.95;
	373	1	0	0	0	0	1	1.08666911	-2.25710759	110	1	1.12	0.95;
	374	1	12.04	4.84	0	0	1	1.07730355	-10.8467378	110	1	1.12	0.95;
	375	1	0	0	0	0	1	1.07737926	-10.8379944	110	1	1.12	0.95;
	376	1	2.47	0.8	0	0	1	1.03910118	-21.6235197	110	1	1.12	0.95;
	377	1	5.13	2.2	0	0	1	1.06581184	-11.9812982	110	1	1.12	0.95;
	378	1	5.62	2.4	0	0	1	1.06577372	-11.9913428	110	1	1.12	0.95;
	379	1	0	0	0	0	1	1.07560616	-26.9492076	110	1	1.12	0.95;
	380	1	7.89	1.3	0	0	1	1.07564378	-26.9715597	110	1	1.12	0.95;
	381	1	2.96	0	0	0	1	1.07798308	-26.1623471	110	1	1.12	0.95;
	382	1	3.28	2	0	0	1	1.04477098	-22.6707332	110	1	1.12	0.95;
	383	1	3.13	2	0	0	1	1.0448019	-22.6848557	110	1	1.12	0.95;
	384	1	2.86	0.2	0	0	1	1.06138165	-15.3400353	110	1	1.12	0.95;
	385	1	8.53	3.3	0	0	1	1.05144319	-20.1854344	110	1	1.12	0.95;
	386	1	9.79	4.71	0	0	1	1.05149159	-20.1795834	110	1	1.12	0.95;
	387	1	8.2	1.8	0	0	1	1.05912899	-19.9005302	110	1	1.12	0.95;
	388	1	5.62	2.07	0	0	1	1.08215105	-10.4933267	110	1	1.12	0.95;
	389	1	0	0	0	0	1	1.08218444	-10.4909506	110	1	1.12	0.95;
	390	1	3.74	0.85	0	0	1	1.04295257	-20.2074378	110	1	1.12	0.95;
	391	1	5.33	0.7	0	0	1	1.05107759	-24.9478325	110	1	1.12	0.95;
	392	1	11.44	0.7	0	0	1	1.06154141	-15.2534758	110	1	1.12	0.95;
	393	1	2.07	0.7	0	0	1	1.07432728	-9.50895946	110	1	1.12	0.95;
	394	1	2.07	0.7	0	0	1	1.07426167	-9.48866902	110	1	1.12	0.95;
	395	1	9.67	3.88	0	0	1	1.07212389	-12.0877559	110	1	1.12	0.95;
	396	1	0	0	0	0	1	1.07216797	-12.0782439	110	1	1.12	0.95;
	397	1	9.57	3.52	0	0	1	1.07262763	-12.1982302	110	1	1.12	0.95;
	398	2	4.93	-0.66	0	0	1	1.07983138	-24.1282246	110	1	1.12	0.95;
	399	1	5.42	0.5	0	0	1	1.07987913	-24.1201062	110	1	1.12	0.95;
	400	1	0	0	0	0	1	1.07598738	-10.5721663	110	1	1.12	0.95;
	401	1	4.54	1.9	0	0	1	1.04784267	-7.78810782	110	1	1.12	0.95;
	402	2	14.99	6.03	0	0	1	1.08182	-10.4936424	110	1	1.12	0.95;
	403	1	0	0	0	0	1	1.08189442	-10.4889383	110	1	1.12	0.95;
	404	1	10.95	4.03	0	0	1	1.07023199	-11.5713334	110	1	1.12	0.95;
	405	1	0	0	0	0	1	1.0702271	-11.553505	110	1	1.12	0.95;
	406	1	14.21	5.24	0	0	1	1.07452772	-11.10551	110	1	1.12	0.95;
	407	1	17.76	6.54	0	0	1	1.07143108	-12.2192871	110	1	1.12	0.95;
	408	1	5.66	1.52	0	0	1	1.07142349	-12.2159096	110	1	1.12	0.95;
	409	2	22.7	9.13	0	0	1	1.07545	-11.3605024	110	1	1.12	0.95;
	410	1	0	0	0	0	1	1.07537424	-11.3841338	110	1	1.12	0.95;
	411	2	14.44	10.73	0	0	1	1.07273	-12.1722936	110	1	1.12	0.95;
	412	2	14.2	0.68	0	0	1	1.07022776	-12.0246701	110	1	1.12	0.95;
	413	1	0	0	0	0	1	1.07186488	-12.1343447	110	1	1.12	0.95;
	414	2	1.1	-4.85	0	0	1	1.07400678	-11.1443819	110	1	1.12	0.95;
	415	2	12.46	9.56	0	0	1	1.07273	-10.5231731	110	1	1.12	0.95;
	416	1	11.34	0.7	0	0	1	1.06701322	-14.1971034	110	1	1.12	0.95;
	417	1	0	0	0	0	1	1.06700262	-14.2069714	110	1	1.12	0.95;
	418	1	1.97	0.2	0	0	1	1.06907508	-25.2201272	110	1	1.12	0.95;
	419	1	2.82	0	0	0	1	1.04371766	-23.5078202	110	1	1.12	0.95;
	420	1	4.03	1	0	0	1	1.04508123	-23.1407954	110	1	1.12	0.95;
	421	1	2.28	0.4	0	0	1	1.0450896	-23.1264971	110	1	1.12	0.95;
	422	1	10.41	2	0	0	1	1.0438535	-23.5056911	110	1	1.12	0.95;
	423	1	0	0	0	0	1	1.04384992	-23.4943368	110	1	1.12	0.95;
	424	1	7.79	2.5	0	0	1	1.0569571	-20.3038831	110	1	1.12	0.95;
	425	1	5.97	1.7	0	0	1	1.0569991	-20.2853003	110	1	1.12	0.95;
	426	1	9.67	3.56	0	0	1	1.07664301	-10.9553403	110	1	1.12	0.95;
	427	1	0	0	0	0	1	1.0767428	-10.9433416	110	1	1.12	0.95;
	428	2	17.07	6.29	0	0	1	1.07273	-11.2935272	110	1	1.12	0.95;
	429	1	0	0	0	0	1	1.07276376	-11.286043	110	1	1.12	0.95;
	430	1	5.42	1	0	0	1	1.07979137	-24.3185859	110	1	1.12	0.95;
	431	1	4.93	1	0	0	1	1.0797153	-24.3090453	110	1	1.12	0.95;
	432	1	23.18	9.32	0	0	1	1.07266071	-10.5842595	110	1	1.12	0.95;
	433	1	0	0	0	0	1	1.07264724	-10.5782475	110	1	1.12	0.95;
	434	1	7.45	2.74	0	0	1	1.07462809	-11.4370747	110	1	1.12	0.95;
	435	1	7.45	2.74	0	0	1	1.07379606	-11.6251438	110	1	1.12	0.95;
	436	1	5.92	0.7	0	0	1	1.07996275	-24.0909256	110	1	1.12	0.95;
	437	1	2.96	0.2	0	0	1	1.079986	-24.1101765	110	1	1.12	0.95;
	438	1	8.09	2	0	0	1	1.04416871	-24.096283	110	1	1.12	0.95;
	439	1	7.4	1.9	0	0	1	1.04418493	-24.1080785	110	1	1.12	0.95;
	440	1	10.46	3.85	0	0	1	1.07397716	-11.6040795	110	1	1.12	0.95;
	441	1	9.07	2.4	0	0	1	1.07430158	-10.7369747	110	1	1.12	0.95;
	442	1	5.42	1	0	0	1	1.07393568	-10.7401726	110	1	1.12	0.95;
	443	1	25.35	9.34	0	0	1	1.0714957	-11.3174461	110	1	1.12	0.95;
	444	1	0	0	0	0	1	1.07154984	-11.3085028	110	1	1.12	0.95;
	445	1	10.97	0	0	0	1	1.06593891	-13.1050814	110	1	1.12	0.95;
	446	1	9.61	0	0	0	1	1.06593107	-13.1118807	110	1	1.12	0.95;
	447	1	2.96	0.7	0	0	1	1.04263429	-24.2316271	110	1	1.12	0.95;
	448	1	7.89	1.2	0	0	1	1.04264214	-24.2303618	110	1	1.12	0.95;
	449	1	0	0	0	0	1	1.06335099	-12.9705329	110	1	1.12	0.95;
	450	1	8.38	1.2	0	0	1	1.03729479	-31.3074308	110	1	1.12	0.95;
	451	1	12.43	4.57	0	0	1	1.07107626	-11.2888922	110	1	1.12	0.95;
	452	1	0	0	0	0	1	1.07108059	-11.3067127	110	1	1.12	0.95;
	453	1	8.5	4	0	0	1	1.06050218	-24.3617286	110	1	1.12	0.95;
	454	1	0	0	0	0	1	1.06037579	-24.3561204	110	1	1.12	0.95;
	455	1	9.86	2.6	0	0	1	1.05600482	-20.0436844	110	1	1.12	0.95;
	456	1	9.86	2.6	0	0	1	1.04462818	-21.6707342	110	1	1.12	0.95;
	457	1	4.93	0.8	0	0	1	1.07264946	-25.1368207	110	1	1.12	0.95;
	458	1	0	0	0	0	1	1.04867088	-20.1140675	110	1	1.12	0.95;
	459	1	0	0	0	0	1	1.05987006	-19.8062553	110	1	1.12	0.95;
	460	1	0	0	0	0	1	1.06621181	-19.1908464	110	1	1.12	0.95;
	461	1	0	0	0	45	1	1.08113742	-20.2130255	16	1	1.12	0.95;
	462	1	0	0	0	0	1	0.968225045	-16.1295262	32	1	1.12	0.95;
	463	1	18.17	7.41	0	0	1	1.0498702	-20.5187947	110	1	1.12	0.95;
	464	1	14.04	5.41	0	0	1	1.05469808	-19.783388	110	1	1.12	0.95;
	465	1	5.72	0.9	0	0	1	1.05795592	-34.2218516	110	1	1.12	0.95;
	466	2	7.68	0.38	0	0	1	1.06354695	-22.449453	110	1	1.12	0.95;
	467	1	14.8	1.4	0	0	1	1.04370745	-29.5393797	110	1	1.12	0.95;
	468	1	0	0	0	0	1	1.04367292	-29.5273579	110	1	1.12	0.95;
	469	1	11.94	4.4	0	0	1	1.08280783	-10.4959425	110	1	1.12	0.95;
	470	1	0	0	0	0	1	1.08287269	-10.4877083	110	1	1.12	0.95;
	471	1	9.37	2.38	0	0	1	1.05655412	-20.4596558	110	1	1.12	0.95;
	472	1	0	0	0	0	1	1.06053777	-19.7760764	110	1	1.12	0.95;
	473	1	5.92	1	0	0	1	1.07391882	-26.8224053	110	1	1.12	0.95;
	474	1	0.99	0.3	0	0	1	1.06391328	-20.276947	110	1	1.12	0.95;
	475	1	0	0	0	0	1	1.06259758	-20.2446795	110	1	1.12	0.95;
	476	1	0	0	0	0	1	1.06249737	-20.2339399	110	1	1.12	0.95;
	477	1	0	0	0	15	1	0.946358922	-21.0582017	16	1	1.12	0.95;
	478	1	0	0	0	15	1	0.946454615	-21.1400948	16	1	1.12	0.95;
	479	1	2.46	0.3	0	0	1	1.04637208	-20.2074014	110	1	1.12	0.95;
	480	1	4.94	2	0	0	1	1.04641161	-20.2059046	110	1	1.12	0.95;
	481	1	5.92	2.1	0	0	1	1.03398761	-22.7112693	110	1	1.12	0.95;
	482	1	5.92	2.1	0	0	1	1.03396325	-22.705258	110	1	1.12	0.95;
	483	1	5.72	1.6	0	0	1	1.07411929	-23.3331301	110	1	1.12	0.95;
	484	1	3.85	1.4	0	0	1	1.07412871	-23.3309791	110	1	1.12	0.95;
	485	1	0	0	0	0	1	1.06607698	-19.1894777	110	1	1.12	0.95;
	486	1	0	0	0	0	1	1.06622484	-19.1275669	110	1	1.12	0.95;
	487	1	0	0	0	0	1	1.06603912	-19.1856929	110	1	1.12	0.95;
	488	1	0	0	0	0	1	0.949972937	-19.908482	16	1	1.12	0.95;
	489	1	2.56	0.6	0	0	1	1.05758663	-9.75780986	110	1	1.12	0.95;
	490	1	2.86	1.5	0	0	1	1.05758005	-9.75702461	110	1	1.12	0.95;
	491	1	7.57	2.2	0	0	1	1.08451533	-21.2389874	110	1	1.12	0.95;
	492	2	44.88	17.02	0	0	1	1.07273	-21.4141692	110	1	1.12	0.95;
	493	2	53.77	21.02	0	0	1	1.07273	-23.5003948	110	1	1.12	0.95;
	494	2	69.15	28.02	0	0	1	1.08182	-20.7424052	110	1	1.12	0.95;
	495	2	77.06	34.03	0	0	1	1.07273	-21.5827318	110	1	1.12	0.95;
	496	1	0	0	0	0	1	1.09040646	-23.0757463	110	1	1.12	0.95;
	497	1	0	0	0	0	1	1.0902553	-23.1201464	110	1	1.12	0.95;
	498	1	9.37	0.2	0	0	1	1.04570086	-24.5538582	110	1	1.12	0.95;
	499	1	0	0	0	0	1	1.04578441	-24.5612066	110	1	1.12	0.95;
	500	1	12.92	1.2	0	0	1	1.05275569	-26.1217643	110	1	1.12	0.95;
	501	1	3.35	0.2	0	0	1	1.05275852	-26.1306505	110	1	1.12	0.95;
	502	1	3.45	1	0	0	1	1.05893197	-29.6037047	110	1	1.12	0.95;
	503	1	0	0	0	0	1	1.08071978	-24.7234885	110	1	1.12	0.95;
	504	1	6.27	3	0	0	1	1.04146926	-23.8657943	110	1	1.12	0.95;
	505	1	9.22	3	0	0	1	1.04145323	-23.8650134	110	1	1.12	0.95;
	506	1	6.02	1.2	0	0	1	1.06502508	-12.1174497	110	1	1.12	0.95;