function mpc = case6468rte_res
%CASE6468RTE_RES

%% MATPOWER Case Format : Version 2
mpc.version = '2';

%%-----  Power Flow Data  -----%%
%% system MVA base
mpc.baseMVA = 100;

%% bus data
%    bus_i    type    Pd    Qd    Gs    Bs    area    Vm    Va    baseKV    zone    Vmax    Vmin
mpc.bus = [
    1    1    0    0    0    0    1    0.982360206    -16.9894983    45    1    1    0.888889;
    2    1    0    0    0    0    1    1.03357343    -12.614413    63    1    1.06349    0.936508;
    3    1    11.7    -1.2    0    0    1    0.982847446    -9.53888901    63    1    1.07937    0.952381;
    4    1    33.8    -8.2    0    0    1    1.06611868    -3.89928029    90    1    1.08889    0.933333;
    5    1    11    -0.9    0    0    1    0.982872106    -29.889971    63    1    1.06349    0.952381;
    6    1    13    4.3    0    0    1    1.03222932    -15.5415629    63    1    1.07937    0.920635;
    7    1    1    -0.2    0    0    1    1.05987034    -17.5702184    63    1    1.07937    0.920635;
    8    1    0.4    -4.4    0    0    1    1.06971347    -0.189992276    225    1    1.08889    0.888889;
    9    1    16.9    0    0    0    1    1.03236687    -21.5101505    63    1    1.06349    0.936508;
    10    1    0    0    0    0    1    1.06578606    -3.5322562    90    1    1.07778    0.922222;
    11    1    20    -3.1    0    0    1    1.06578583    -3.53225372    90    1    1.07778    0.922222;
    12    1    0    0    0    0    1    0.991391888    3.71055094    63    1    1.07937    0.952381;
    13    1    0    0    0    0    1    1.05441486    -2.34658313    380    1    1.10263    1.05084;
    14    1    37    3.6    0    0    1    1.04768721    -8.23109307    90    1    1.07778    0.977778;
    15    1    0    0    0    0    1    1.02545239    -21.0622356    63    1    1.07937    0.920635;
    16    1    10.3    1.5    0    0    1    1.04945774    -23.5550053    63    1    1.07937    0.920635;
    17    1    11.2    -0.6    0    0    1    1.04996414    -15.5820038    90    1    1.06667    0.977778;
    18    1    0    0    0    0    1    0.921553908    -10.9877434    45    1    1    0.888889;
    19    1    1    0    0    0    1    1.02569448    -12.7402618    63    1    1.06349    0.936508;
    20    1    2.3    -18.3    0    0    1    0.922386207    -11.0189947    45    1    1    0.888889;
    21    1    6.5    -1.9    0    0    1    1.04121453    -9.89899911    90    1    1.06667    0.977778;
    22    1    15.2    1.4    0    0    1    1.00195621    -4.56748644    63    1    1.07937    0.952381;
    23    1    29.1    4.6    0    0    1    1.00665706    -17.7179479    63    1    1.06349    0.936508;
    24    1    9.7    -2.8    0    0    1    1.06346895    -2.59925509    90    1    1.11111    0.955556;
    25    1    46.5    -6.1    0    0    1    1.09135684    -0.996926458    90    1    1.1    0.944444;
    26    1    20.5    4.7    0    0    1    1.02477313    -7.88289335    90    1    1.06667    0.977778;
    27    1    0    0    0    0    1    1.06682062    -4.1168893    225    1    1.08444    1.00444;
    28    1    0.4    0.9    0    0    1    1.02834603    -13.3038789    63    1    1.07937    0.952381;
    29    1    52.7    1.8    0    0    1    1.01167745    -22.7296867    63    1    1.06349    0.968254;
    30    1    29.8    -1.9    0    0    1    1.06365967    -3.58342606    90    1    1.08889    0.933333;
    31    1    0    0    0    0    1    1.02844033    -14.5689364    63    1    1.06349    0.936508;
    32    1    0    0    0    0    1    1.02538054    -9.48599249    150    1    1.10667    0.9;
    33    1    0    0    0    0    1    1.03986884    -11.0968748    225    1    1.08889    0.933333;
    34    1    0    0    0    0    1    1.03410542    -11.3218244    225    1    1.08889    0.933333;
    35    1    0    0    0    0    1    1.05454532    -7.73187964    380    1    1.10526    1.03947;
    36    1    0    0    0    0    1    1.05846782    -6.42626214    380    1    1.10526    1.03947;
    37    1    2.3    4.4    0    0    1    1.02738946    -17.2510766    63    1    1.07937    0.920635;
    38    1    7    -1    0    0    1    1.06103226    -3.84091011    63    1    1.09524    0.936508;
    39    1    35    -6.8    0    0    1    1.01594025    -16.3521697    90    1    1.07778    0.977778;
    40    1    31.7    0.5    0    0    1    1.04084682    -6.83631155    90    1    1.07778    0.977778;
    41    1    0    0    0    0    1    1.0806985    -5.40919479    225    1    1.09194    1.00444;
    42    1    0    0    0    0    1    1.0954297    7.8805398    63    1    1.13061    0.952381;
    43    1    3.4    2.8    0    0    1    1.05270632    -4.48707882    90    1    1.07778    0.977778;
    44    1    12.4    0    0    0    1    1.00594055    -29.8166633    63    1    1.06349    0.952381;
    45    1    3    2.1    0    0    1    1.01692587    -12.6313247    90    1    1.06667    0.977778;
    46    1    0    0    0    0    1    1.01002735    -14.4775196    63    1    1.06349    0.936508;
    47    2    0    0    0    0    1    1.00922113    -14.4682768    63    1    1.06349    0.936508;
    48    1    34    1.3    0    0    1    1.04957921    -3.89966144    90    1    1.07778    0.922222;
    49    1    6.9    -2.5    0    0    1    1.03425803    -10.7995579    63    1    1.06349    0.936508;
    50    1    0    0    0    0    1    1.06027791    -16.7255531    63    1    1.07436    0.936508;
    51    1    0    0    0    0    1    1.04603193    -12.4097896    225    1    1.08889    0.933333;
    52    1    5.8    2.5    0    0    1    1.02216406    -14.3593939    90    1    1.06667    0.977778;
    53    1    0.2    -0.3    0    0    1    1.02177242    -5.58502749    63    1    1.04762    0.952381;
    54    1    0.9    -0.8    0    0    1    1.04651464    -5.30982081    90    1    1.06667    0.977778;
    55    1    30.1    5.4    0    0    1    1.06911735    -5.98827205    225    1    1.08889    1.00444;
    56    1    42.2    6.3    0    0    1    1.05123653    -4.76384437    225    1    1.08889    1.00444;
    57    2    0    0    0    0    1    1.059    -18.944119    63    1    1.07937    0.920635;
    58    1    107.6    28.8    0    0    1    1.06892858    -5.99979694    225    1    1.08889    1.00444;
    59    1    5.2    1.4    0    0    1    0.989827696    -7.33147296    63    1    1.07937    0.952381;
    60    1    0    0    0    0    1    0.99894328    -1.88401737    63    1    1.07937    0.952381;
    61    1    29.6    5.1    0    0    1    0.997465934    -3.77313052    63    1    1.07937    0.952381;
    62    1    0    0    0    0    1    0.999694909    -1.59883596    63    1    1.07937    0.952381;
    63    1    12.8    2    0    0    1    0.993826426    4.48787966    63    1    1.07937    0.952381;
    64    1    47.2    -0.7    0    0    1    1.0705947    1.92010727    225    1    1.08889    0.888889;
    65    1    10    2.9    0    0    1    1.00694601    -4.2085509    63    1    1.07937    0.952381;
    66    1    11.1    -9.3    0    0    1    1.04900051    -17.2629804    63    1    1.06349    0.936508;
    67    1    0    0    0    0    1    1.03746812    -8.39702618    63    1    1.07937    0.920635;
    68    1    41.1    -6.8    0    0    1    1.01936001    -13.3655686    63    1    1.06349    0.936508;
    69    1    14.4    -3.2    0    0    1    1.01147201    -33.718741    63    1    1.06349    0.952381;
    70    1    8.7    0.6    0    0    1    1.00572368    3.97053159    63    1    1.07937    0.952381;
    71    1    55.8    10.7    0    0    1    1.0267104    -6.4128419    63    1    1.04762    0.952381;
    72    1    0    0    0    0    1    1.0865556    0.714830726    225    1    1.08889    1.00444;
    73    1    0    0    0    0    1    1.08655582    0.715209144    225    1    1.08889    1.00444;
    74    1    37.1    -8.7    0    0    1    1.07105685    1.98983453    225    1    1.08889    0.888889;
    75    1    19.3    1.4    0    0    1    1.05921685    -4.29669837    90    1    1.06825    0.977778;
    76    1    6.3    3.2    0    0    1    1.05309569    7.25595618    225    1    1.08889    0.986667;
    77    1    28.9    -5.2    0    0    1    1.03928196    -11.9271813    63    1    1.06349    0.936508;
    78    1    0    0    0    0    1    1.05538565    -21.1312879    63    1    1.07937    0.920635;
    79    1    0    0    0    0    1    1.02849409    -3.93099943    63    1    1.04762    0.952381;
    80    1    26.1    -1    0    0    1    1.07157163    -3.87605437    225    1    1.08889    1.00444;
    81    1    26.1    3.5    0    0    1    1.0715771    -3.8757243    225    1    1.08889    1.00444;
    82    1    9.8    -3.2    0    0    1    1.02853529    -11.2627887    63    1    1.06349    0.936508;
    83    1    85    46.2    0    0    1    1.06380749    -5.2126114    225    1    1.08889    1.00444;
    84    1    -1    -1.1    0    0    1    0.999291495    -11.8340374    63    1    1.06349    0.936508;
    85    1    2.3    -0.8    0    0    1    1.04254625    -13.6853843    63    1    1.06349    0.936508;
    86    1    30.3    -3.7    0    0    1    1.01684367    -21.569565    90    1    1.06667    0.977778;
    87    1    0    0    0    0    1    1.00372387    4.29332237    63    1    1.07937    0.952381;
    88    1    11.5    -3.8    0    0    1    1.03334332    -12.8134076    63    1    1.06349    0.936508;
    89    1    17.7    -4.9    0    0    1    1.05584517    -6.77448592    90    1    1.07778    0.977778;
    90    1    0.7    -0.3    0    0    1    0.921441728    -11.9265819    45    1    1    0.888889;
    91    1    0    0    0    0    1    0.921553908    -10.9877434    45    1    1    0.888889;
    92    1    24.7    0.4    0    0    1    1.03495223    -15.8003357    63    1    1.06349    0.968254;
    93    1    2.3    -2.5    0    0    1    0.951873078    -14.3372423    45    1    1    0.888889;
    94    1    13    -4.9    0    0    1    1.05414077    -6.74357514    90    1    1.06667    0.977778;
    95    1    38    3.8    0    0    1    1.02303941    -13.8353554    90    1    1.06667    0.977778;
    96    1    0.9    -0.6    0    0    1    1.02605991    -12.6406345    63    1    1.06349    0.936508;
    97    1    47    0.8    0    0    1    1.04296417    -20.2109086    63    1    1.07937    0.920635;
    98    1    6.6    -2.2    0    0    1    1.03653774    -7.55233651    63    1    1.07937    0.952381;
    99    1    21.9    3.2    0    0    1    0.999827188    -3.3283948    63    1    1.07937    0.952381;
    100    1    46.3    7.4    0    0    1    1.01522504    -17.007515    63    1    1.06349    0.936508;
    101    1    14    -1.5    0    0    1    0.999154668    -12.2999732    63    1    1.06349    0.936508;
    102    2    0    0    0    0    1    1.02    -18.6209647    63    1    1.07937    0.952381;
    103    1    13.2    -4    0    0    1    1.00799841    -1.94262978    63    1    1.07937    0.952381;
    104    1    0    0    0    0    1    1.04193666    0.582905078    225    1    1.08889    0.986667;
    105    1    28.5    -1.6    0    0    1    1.06969934    1.2713893    225    1    1.08889    0.888889;
    106    1    38.8    2.2    0    0    1    1.07961207    -2.19126604    90    1    1.1    0.944444;
    107    1    71.6    4.9    0    0    1    1.06152703    -23.4846261    225    1    1.08444    1.00889;
    108    1    7.9    -4.6    0    0    1    1.06751597    -2.50888532    90    1    1.07778    0.977778;
    109    1    60.6    7.8    0    0    1    1.03692292    -12.9051146    63    1    1.06349    0.936508;
    110    1    0    0    0    0    1    1.02640262    -9.24457503    225    1    1.08889    0.933333;
    111    1    34.2    -7.2    0    0    1    1.00939679    -21.0288391    63    1    1.06349    0.968254;
    112    1    0    0    0    0    1    1.03129628    -6.97314265    63    1    1.04762    0.952381;
    113    1    0    0    0    0    1    1.06926066    -4.6169658    225    1    1.08889    1.00444;
    114    1    11.5    -1    0    0    1    1.04825824    -17.1536068    63    1    1.06349    0.936508;
    115    1    0    0    0    0    1    1.05442399    -2.34666651    380    1    1.10526    1.05085;
    116    1    0    0    0    0    1    1.05442399    -2.34666651    380    1    1.10526    1.05085;
    117    1    13.2    -2.2    0    0    1    1.01652452    -13.6585408    63    1    1.07937    0.952381;
    118    1    2    0.8    0    0    1    1.06107447    -4.06588632    90    1    1.07012    0.977778;
    119    1    35.5    0.7    0    0    1    1.03096499    -6.36656905    63    1    1.06349    0.936508;
    120    1    29.9    -1.3    0    0    1    1.0183615    -17.0427938    63    1    1.06349    0.936508;
    121    1    15.3    3.7    0    0    1    1.04207236    -13.3661971    63    1    1.07937    0.920635;
    122    2    0    0    0    0    1    1.01023281    -2.94018226    63    1    1.07937    0.952381;
    123    1    9    2.7    0    0    1    1.00909716    -3.01117073    63    1    1.07937    0.952381;
    124    1    8.9    -4    0    0    1    1.04750138    -11.6680097    90    1    1.06667    0.977778;
    125    1    4.8    -3.1    0    0    1    1.02525611    -2.72101629    63    1    1.07937    0.952381;
    126    1    -0.3    0.5    0    0    1    1.04300005    -13.5091219    63    1    1.06349    0.936508;
    127    1    6.5    0.4    0    0    1    1.03153449    -8.41230447    63    1    1.04762    0.952381;
    128    1    13.9    5.6    0    0    1    1.02280368    -10.3474931    63    1    1.06349    0.968254;
    129    1    18.8    14.3    0    0    1    1.02022376    -9.12482832    63    1    1.06349    0.968254;
    130    1    0    0    0    0    1    1.04955401    -7.72887449    225    1    1.08444    1.00889;
    131    1    82    2    0    0    1    1.04615597    -17.1617258    225    1    1.08444    1.00889;
    132    2    11.9    0    0    0    1    1.04635909    -16.5735875    90    1    1.07778    0.922222;
    133    1    1.3    0.3    0    0    1    1.0196541    -6.99965518    63    1    1.04762    0.952381;
    134    1    71.7    15.7    0    0    1    1.06193956    -4.86461842    225    1    1.08889    1.00444;
    135    1    0    0    0    0    1    1.0692735    -5.87360986    225    1    1.08889    1.00444;
    136    1    18.8    2.3    0    0    1    1.02710602    -14.2438546    90    1    1.07778    0.977778;
    137    2    13.4    -9.1    0    0    1    1.01437397    -23.4835278    63    1    1.06349    0.968254;
    138    1    0    0    0    0    1    1.0089765    -19.9188541    150    1    1.08    0.966667;
    139    1    8.6    -1    0    0    1    1.03847792    -16.1605007    63    1    1.07937    0.920635;
    140    1    0    0    0    0    1    1.06127287    -13.4674455    225    1    1.08889    1;
    141    1    0    0    0    0    1    1.06994673    -10.7622678    380    1    1.10526    1.05263;
    142    1    15.8    1.3    0    0    1    0.99325714    -6.98228689    63    1    1.07937    0.952381;
    143    1    0    0    0    0    1    1.03348281    -3.41466745    225    1    1.08889    0.986667;
    144    1    0    0    0    -64    1    1.06620776    1.53977534    20    1    1.15    0.8;
    145    1    21.2    10    0    0    1    1.06705043    -1.5210455    90    1    1.11111    0.955556;
    146    1    25.6    6.2    0    0    1    1.07097109    2.14740517    225    1    1.08889    0.968889;
    147    1    0    0    0    0    1    1.07783429    4.83809492    380    1    1.10526    1;
    148    1    25    3.6    0    0    1    1.03680286    -16.5915549    63    1    1.06349    0.936508;
    149    1    6.3    2.2    0    0    1    1.02441337    -12.9787507    63    1    1.06349    0.936508;
    150    1    17.9    5.1    0    0    1    1.0145452    -14.0768357    90    1    1.06667    0.977778;
    151    1    41.9    5.6    0    0    1    1.02611783    -14.9968681    63    1    1.06349    0.936508;
    152    1    0    0    0    0    1    1.01211905    -23.157181    63    1    1.06349    0.968254;
    153    1    34.2    5.9    0    7.7    1    1.01207024    -21.8734783    63    1    1.06349    0.968254;
    154    1    20.4    0.6    0    0    1    1.03225006    -12.094489    63    1    1.06349    0.936508;
    155    1    0    0    0    0    1    1.05637989    -8.57739581    225    1    1.08889    0.933333;
    156    2    0    0    0    0    1    1.06006444    -22.8213609    63    1    1.07937    0.920635;
    157    1    0    0    0    0    1    1.01210108    -23.1589696    63    1    1.06349    0.968254;
    158    1    -0.1    -2.1    0    0    1    0.894021973    -15.4605136    45    1    1    0.888889;
    159    2    0    0    0    0    1    0.942719114    -12.8835402    45    1    1    0.888889;
    160    1    0    0    0    0    1    1.01267143    -17.2698994    63    1    1.06349    0.936508;
    161    1    29.5    2.3    0    0    1    1.0751895    2.41406549    225    1    1.08889    0.888889;
    162    1    31.5    7.4    0    0    1    1.074975    2.41091557    225    1    1.08889    0.888889;
    163    1    0.4    -1.6    0    0    1    1.03121258    -5.72492617    90    1    1.06667    0.977778;
    164    1    0    0    0    0    1    0.999091139    -2.30114203    63    1    1.07937    0.952381;
    165    1    0    0    0    0    1    0.999091139    -2.30114203    63    1    1.07937    0.952381;
    166    1    11.3    -3.9    0    0    1    1.06633384    -9.58681553    20    1    1.15    0.8;
    167    1    5.8    1.4    0    0    1    1.02745606    -13.2829704    90    1    1.06667    0.977778;
    168    1    7.8    -0.9    0    0    1    1.02810337    -13.3469984    90    1    1.06667    0.977778;
    169    1    0    0    0    0    1    1.06631164    -9.58190003    225    1    1.08642    1.00444;
    170    1    9.1    -1.1    0    0    1    1.0391185    -13.5434823    90    1    1.06667    0.977778;
    171    1    60    6.1    0    0    1    1.05280118    -8.40063331    90    1    1.07778    0.977778;
    172    1    21.4    -1.8    0    0    1    1.04464705    -10.0365037    90    1    1.07778    0.977778;
    173    1    0    0    0    0    1    1.07096511    -6.67524723    225    1    1.08889    1.00444;
    174    1    26.6    6.6    0    0    1    1.08721143    0.0358182167    90    1    1.08889    0.933333;
    175    1    35.7    -1.5    0    0    1    1.08796795    -2.22535226    90    1    1.11111    0.955556;
    176    1    0    0    0    0    1    1.04576999    -20.3308503    63    1    1.07937    0.920635;
    177    1    0    0    0    0    1    1.04279526    -17.824477    63    1    1.07937    0.920635;
    178    2    0    0    0    0    1    1.10160287    -18.7563087    150    1    1.1    0.9;
    179    1    0    0    0    0    1    1.0690417    -5.91562673    225    1    1.08889    1.00444;
    180    1    0    0    0    0    1    1.06904192    -5.91562794    225    1    1.08889    1.00444;
    181    1    0    0    0    -32    1    0.99119725    -8.53470679    20    1    1.15    0.8;
    182    1    0    0    0    -32    1    1.02430166    -8.48589573    20    1    1.15    0.8;
    183    1    0    0    0    0    1    1.03160587    -8.40582705    63    1    1.04762    0.952381;
    184    1    0    0    0    -80    1    1.06904042    -5.9156198    225    1    1.08889    1.00444;
    185    1    12.1    -5.9    0    0    1    1.05191388    -20.0350452    63    1    1.07937    0.920635;
    186    1    16    3.1    0    0    1    1.03506704    -8.11110884    63    1    1.06349    0.936508;
    187    1    5.4    0.3    0    0    1    1.01320513    -10.2398063    63    1    1.07937    0.952381;
    188    1    3    0.4    0    0    1    1.0438838    -3.6960987    90    1    1.07778    0.977778;
    189    1    21.9    2.4    0    0    1    0.987391019    -7.66838166    63    1    1.07937    0.952381;
    190    1    1.4    -0.7    0    0    1    1.03279504    -4.70739698    90    1    1.06667    0.977778;
    191    2    0    0    0    0    1    1.07478838    -21.6682314    63    1    1.07937    0.920635;
    192    1    12.5    1.1    0    0    1    1.05873671    -18.0345995    63    1    1.07937    0.920635;
    193    2    0    0    0    0    1    0.932029774    -14.2111998    45    1    1    0.888889;
    194    1    12.7    -1.3    0    0    1    1.04107717    -13.7956516    90    1    1.06667    0.977778;
    195    1    7.3    -1.4    0    0    1    1.05731468    -19.114955    63    1    1.07937    0.920635;
    196    1    7.7    5.3    0    0    1    1.06839555    -5.00319015    225    1    1.08889    1.00444;
    197    2    1.4    -3.2    0    0    1    1.071    -20.1412657    63    1    1.07937    0.920635;
    198    1    0    0    0    0    1    1.08949905    -4.92168126    63    1    1.09743    0.952381;
    199    1    0    0    0    0    1    1.08950053    -4.92172385    63    1    1.09743    0.952381;
    200    1    25    -4.9    0    0    1    1.04260621    -23.4317734    63    1    1.07937    0.920635;
    201    1    8.5    -2.4    0    0    1    1.0384174    -17.8085293    63    1    1.07937    0.920635;
    202    1    9.4    0.4    0    0    1    1.01236521    -18.4539852    90    1    1.06667    0.977778;
    203    1    0    0    0    0    1    1.07452536    -17.9437588    225    1    1.08889    1;
    204    1    52.5    20.6    0    0    1    1.06482494    0.727685852    225    1    1.08889    0.888889;
    205    1    34.3    -1.4    0    0    1    1.01482562    -25.4764012    63    1    1.06349    0.968254;
    206    1    24.7    4.7    0    0    1    1.07970565    2.38446369    90    1    1.1    0.944444;
    207    1    0    0    0    0    1    1.07646324    5.21734785    225    1    1.08889    0.968889;
    208    1    0    0    0    0    1    1.0830718    8.37731502    380    1    1.10526    1;
    209    1    42    2.2    0    0    1    1.02165104    -23.8583639    63    1    1.06349    0.968254;
    210    1    26.8    -0.4    0    0    1    0.99992014    -11.3958841    63    1    1.06349    0.968254;
    211    1    12    -2    0    0    1    1.04510684    -3.32485121    90    1    1.07778    0.977778;
    212    1    2.9    1.3    0    0    1    1.0297574    -18.7599847    63    1    1.06349    0.968254;
    213    1    42.7    6.6    0    0    1    1.00155058    -16.4675954    63    1    1.06349    0.968254;
    214    1    29.7    13.3    0    0    1    1.00157762    -16.3124647    63    1    1.06349    0.968254;
    215    1    0    0    0    0    1    1.04633113    -16.2565288    225    1    1.08444    1.00889;
    216    1    0    0    0    0    1    1.04626268    -16.239649    225    1    1.08444    1.00889;
    217    1    33.1    2    0    0    1    1.03745056    -10.9900177    90    1    1.07778    0.977778;
    218    1    0    0    0    0    1    1.06175688    -8.20294932    225    1    1.08889    1.00444;
    219    1    15.4    -7.4    0    0    1    1.018964    -1.64918273    63    1    1.06349    0.952381;
    220    1    23.5    -0.6    0    0    1    1.01795572    -11.066982    90    1    1.06667    0.977778;
    221    1    0.9    -0.9    0    0    1    1.04621833    -5.28156855    90    1    1.06667    0.977778;
    222    1    8.8    -1.3    0    0    1    1.0371772    -13.3416509    90    1    1.06667    0.977778;
    223    1    11    1.5    0    0    1    1.00969335    4.63368071    63    1    1.07937    0.952381;
    224    1    14.1    -11.3    0    0    1    1.03324891    -10.1064264    63    1    1.06349    0.936508;
    225    1    0    0    0    0    1    1.07572188    -7.91808378    225    1    1.08889    0.933333;
    226    1    32    -2.3    0    0    1    1.03345109    -18.5113922    63    1    1.07937    0.920635;
    227    2    0    0    0    0    1    1.10155265    -18.7553366    150    1    1.1    0.9;
    228    1    75.7    34.1    0    0    1    1.04131876    -17.6839581    225    1    1.08444    1.00889;
    229    1    74.7    49.1    0    0    1    1.04107977    -17.6805821    225    1    1.08444    1.00889;
    230    1    4    0.2    0    0    1    0.989746633    -33.3134997    63    1    1.06349    0.952381;
    231    1    9.9    -2    0    0    1    0.989313831    -33.9528446    63    1    1.06349    0.952381;
    232    1    14.6    -5.1    0    0    1    1.05115807    -15.6651721    63    1    1.07937    0.920635;
    233    1    0    0    0    0    1    1.04292377    -17.505435    225    1    1.08889    0.977778;
    234    1    6    -2.4    0    0    1    1.03842214    -13.0671422    90    1    1.06667    0.977778;
    235    1    6.6    1.5    0    0    1    1.02830326    -1.25425486    90    1    1.08889    0.933333;
    236    1    0    0    0    0    1    1.07356823    -2.11391776    20    1    1.15    0.8;
    237    1    21.9    6.1    0    0    1    1.07356823    -2.11391776    90    1    1.08889    0.933333;
    238    1    15    2.4    0    0    1    1.07026221    0.527970287    225    1    1.08889    0.888889;
    239    1    19    -0.8    0    0    1    1.06035732    -2.5670512    90    1    1.07778    0.922222;
    240    1    37.4    1    0    0    1    1.0131242    -14.4616532    63    1    1.06349    0.936508;
    241    1    19    -2    0    0    1    1.02726758    -8.15087444    90    1    1.06667    0.977778;
    242    1    43.3    2.4    0    0    1    0.992955604    -37.5283995    63    1    1.06349    0.952381;
    243    1    32.9    4.7    0    0    1    1.05544639    -21.1276354    63    1    1.07937    0.920635;
    244    1    35.5    0.5    0    0    1    1.03964771    -15.0811015    90    1    1.07778    0.922222;
    245    1    40.1    4.7    0    0    1    1.01324119    -23.6922985    63    1    1.06349    0.968254;
    246    1    21.9    -5.1    0    0    1    1.04120233    -21.2462527    63    1    1.07937    0.920635;
    247    1    43.9    2.5    0    0    1    1.03688642    -17.0721965    90    1    1.07778    0.922222;
    248    1    10.7    0.9    0    0    1    1.02002241    -18.397061    63    1    1.07937    0.920635;
    249    2    14.2    2.8    0    0    1    0.988091001    -12.897766    63    1    1.06349    0.936508;
    250    1    0    0    0    0    1    1.02667063    -11.2043471    225    1    1.08889    0.933333;
    251    1    22.6    5.6    0    0    1    1.05054728    -4.94245672    225    1    1.08889    1.00444;
    252    1    19.5    -2.3    0    0    1    1.04782478    -23.0569997    63    1    1.07937    0.920635;
    253    1    20.5    -6.8    0    0    1    1.01204797    -13.1641256    63    1    1.07937    0.952381;
    254    1    5.6    0.3    0    0    1    1.01940058    -12.2896133    90    1    1.06667    0.977778;
    255    1    7.5    -3.1    0    0    1    1.03525128    -5.16988499    90    1    1.06667    0.977778;
    256    1    42.9    4.8    0    0    1    1.0376774    -7.57386334    63    1    1.07937    0.952381;
    257    1    13.6    -0.8    0    0    1    1.03327044    -13.0677394    63    1    1.07937    0.952381;
    258    1    7.5    1.8    0    0    1    1.0240739    -11.5207215    63    1    1.06349    0.936508;
    259    2    1.7    0    0    0    1    1.03747452    -18.7817368    63    1    1.07937    0.920635;
    260    1    0    0    0    0    1    1.07510961    -18.0449621    225    1    1.08889    1;
    261    2    0    0    0    0    1    1.05197836    -14.4163283    90    1    1.07778    0.922222;
    262    1    27.8    0.5    0    0    1    1.03958912    -5.63266349    63    1    1.07937    0.952381;
    263    1    0    0    0    0    1    1.07208773    -3.75803244    225    1    1.08889    0.986667;
    264    2    0    0    0    0    1    1.02257556    -24.5518361    63    1    1.07937    0.920635;
    265    1    0    0    0    80    1    1.07945642    2.51258838    225    1    1.08889    0.888889;
    266    1    0    0    0    0    1    1.06950083    1.67462951    225    1    1.08889    0.888889;
    267    1    0    0    0    0    1    1.07246489    5.1812091    380    1    1.10526    1.01316;
    268    1    0    0    0    0    1    1.01768581    -6.36429932    63    1    1.04762    0.952381;
    269    1    19.1    2    0    -80    1    1.06438802    -4.04961832    225    1    1.08889    1.00444;
    270    1    47.2    1.7    0    0    1    1.0713251    -4.05302733    225    1    1.08889    1.00444;
    271    1    10.7    10.5    0    0    1    1.0071145    -14.9594482    63    1    1.07937    0.920635;
    272    1    18.5    -1.3    0    0    1    1.02601574    -22.9259632    63    1    1.07937    0.920635;
    273    1    0    0    0    0    1    1.04655522    -9.50109691    225    1    1.08889    0.977778;
    274    1    0    0    0    0    1    1.04669284    -9.50158059    225    1    1.08889    0.977778;
    275    1    10    6    0    0    1    1.03012895    -13.6469774    63    1    1.06349    0.968254;
    276    1    49.7    0.7    0    0    1    1.04512651    -10.3307568    225    1    1.08444    1.00889;
    277    1    36.5    1.2    0    0    1    1.08803314    -2.13240018    90    1    1.1    0.944444;
    278    1    0    0    0    0    1    1.06765559    -6.51205541    225    1    1.08668    1.00444;
    279    1    0    0    0    0    1    1.07020155    -1.25675837    380    1    1.10263    1.04211;
    280    1    3.9    3.2    0    0    1    1.02613585    -9.19769426    90    1    1.06667    0.977778;
    281    1    0.5    3.1    0    0    1    1.06749603    -6.56449852    225    1    1.08655    1.00444;
    282    1    15.9    -1.2    0    0    1    1.00672123    -25.486745    63    1    1.06349    0.936508;
    283    1    36.5    4.5    0    0    1    1.03445936    -11.419565    90    1    1.07778    0.977778;
    284    1    10.8    0    0    0    1    1.00670852    -4.9711687    63    1    1.07937    0.952381;
    285    2    0    0    0    0    1    0.988091487    -12.8977775    63    1    1.06349    0.936508;