function mpc = case6470rte_resqlim
%CASE6470RTE_RESQLIM

%% MATPOWER Case Format : Version 2
mpc.version = '2';

%%-----  Power Flow Data  -----%%
%% system MVA base
mpc.baseMVA = 100;

%% bus data
%	bus_i	type	Pd	Qd	Gs	Bs	area	Vm	Va	baseKV	zone	Vmax	Vmin
mpc.bus = [
	1	1	0	0	0	0	1	0.976915057	-12.8901713	45	1	1	0.888889;
	2	1	0	0	0	0	1	1.02639723	-12.8305366	63	1	1.06349	0.936508;
	3	1	12.5	-0.7	0	0	1	1.00497486	-13.8240011	63	1	1.07937	0.952381;
	4	1	44.7	-0.9	0	0	1	1.0441661	-12.9000004	90	1	1.08889	0.933333;
	5	1	12	0.1	0	0	1	1.01543627	-44.8573252	63	1	1.06349	0.952381;
	6	1	13	4.3	0	0	1	1.0343387	-21.0645678	63	1	1.07937	0.920635;
	7	1	1.2	0.8	0	0	1	1.04586579	-23.323222	63	1	1.07937	0.920635;
	8	1	25.8	4.9	0	0	1	1.06125502	-9.01290041	225	1	1.08889	0.888889;
	9	1	12.9	0	0	0	1	1.04276916	-19.5815563	63	1	1.06349	0.936508;
	10	1	0	0	0	0	1	1.03387785	-12.9636348	90	1	1.07778	0.922222;
	11	1	28.8	1.1	0	0	1	1.03387763	-12.9636324	90	1	1.07778	0.922222;
	12	1	0	0	0	0	1	1.01222138	1.57792208	63	1	1.07937	0.952381;
	13	1	0	0	0	0	1	1.05925782	-4.95231786	380	1	1.10263	1.05526;
	14	1	51.5	1.9	0	0	1	1.06254055	-23.8293094	90	1	1.07778	0.977778;
	15	1	0	0	0	0	1	1.00253316	-27.1250965	63	1	1.07937	0.920635;
	16	1	13.8	4.1	0	0	1	1.03163522	-30.0821054	63	1	1.07937	0.920635;
	17	1	13.1	0.2	0	0	1	1.04634658	-29.095116	90	1	1.06667	0.977778;
	18	1	0	0	0	0	1	0.943856585	-6.12205462	45	1	1	0.888889;
	19	1	1	0	0	0	1	1.01817266	-21.3900022	63	1	1.06349	0.936508;
	20	1	0.9	-21.5	0	0	1	0.944848874	-6.15190522	45	1	1	0.888889;
	21	1	8.3	-3.3	0	0	1	1.04016862	-20.1980974	90	1	1.06667	0.977778;
	22	1	18	1.1	0	0	1	1.01377777	-11.001694	63	1	1.07937	0.952381;
	23	1	19.2	3.4	0	0	1	1.01170919	-10.0390006	63	1	1.06349	0.936508;
	24	1	16.1	-1.6	0	0	1	1.04092036	-12.223624	90	1	1.11111	0.955556;
	25	1	59.9	-3.2	0	0	1	1.07235084	-8.3239968	90	1	1.1	0.944444;
	26	1	35.1	8.1	0	0	1	1.02279365	-21.8780507	90	1	1.06667	0.977778;
	27	1	0	0	0	0	1	1.06692184	-17.5067345	225	1	1.08444	1.00444;
	28	1	0.7	0.2	0	0	1	1.02238763	-19.0057178	63	1	1.07937	0.952381;
	29	1	60.1	2.7	0	0	1	1.00846368	-24.7377896	63	1	1.06349	0.968254;
	30	1	33.5	-0.9	0	0	1	1.03462904	-13.0753962	90	1	1.08889	0.933333;
	31	1	0	0	0	0	1	1.02732432	-9.67233526	63	1	1.06349	0.936508;
	32	1	0	0	0	0	1	1.03658393	-4.72525682	150	1	1.10667	0.9;
	33	1	0	0	0	0	1	1.05464414	-7.39558304	225	1	1.08889	0.933333;
	34	1	0	0	0	0	1	1.05400324	-6.507012	225	1	1.08889	0.933333;
	35	1	0	0	0	0	1	1.07385584	-6.06052463	380	1	1.10526	1.03947;
	36	1	0	0	0	0	1	1.07961698	-5.22827789	380	1	1.10526	1.03947;
	37	1	3.2	4.3	0	0	1	1.00747154	-25.5103801	63	1	1.07937	0.920635;
	38	1	6	-2	0	0	1	1.05034423	-12.4666728	63	1	1.09524	0.936508;
	39	1	41	-3.3	0	0	1	1.03815728	-32.7420938	90	1	1.07778	0.977778;
	40	1	32.6	0.5	0	0	1	1.05907827	-21.9906395	90	1	1.07778	0.977778;
	41	1	0	0	0	0	1	1.07978894	-18.0203397	225	1	1.08889	1.00444;
	42	1	0	0	0	0	1	1.12048941	5.71846191	63	1	1.13259	0.952381;
	43	1	3.6	2	0	0	1	1.04551853	-18.0452637	90	1	1.07778	0.977778;
	44	1	13	-0.7	0	0	1	1.02354529	-45.2436506	63	1	1.06349	0.952381;
	45	1	3.9	1.7	0	0	1	1.00802437	-28.9434556	90	1	1.06667	0.977778;
	46	1	0	0	0	0	1	1.0124262	-16.82632	63	1	1.06349	0.936508;
	47	1	0	0	0	0	1	1.01472503	-14.645547	63	1	1.06349	0.936508;
	48	1	36.5	3.4	0	0	1	1.03395599	-12.9627238	90	1	1.07778	0.922222;
	49	1	8.8	-1.7	0	0	1	1.01807707	-16.1668379	63	1	1.06349	0.936508;
	50	1	0	0	0	0	1	1.06404252	-15.7302483	63	1	1.07012	0.936508;
	51	1	0	0	0	0	1	1.05456758	-11.2462403	225	1	1.08889	0.933333;
	52	1	5	2.4	0	0	1	1.03516953	-30.6766774	90	1	1.06667	0.977778;
	53	1	2.5	-0.5	0	0	1	1.01713495	-17.446882	63	1	1.04762	0.952381;
	54	1	-0.4	-0	0	0	1	1.03765861	-15.7122107	90	1	1.06667	0.977778;
	55	1	37.6	6.7	0	0	1	1.06937639	-18.8224194	225	1	1.08889	1.00444;
	56	1	52.1	13.5	0	0	1	1.07694742	-15.3608605	225	1	1.08889	1.00444;
	57	1	0	0	0	0	1	1.04628693	-23.677928	63	1	1.07937	0.920635;
	58	1	130.6	30.1	0	0	1	1.06917878	-18.8393691	225	1	1.08889	1.00444;
	59	1	5.1	1.3	0	0	1	1.0123025	-11.8437658	63	1	1.07937	0.952381;
	60	1	0	0	0	0	1	1.02626784	-5.62203487	63	1	1.07937	0.952381;
	61	1	39.5	9.7	0	0	1	1.031292	-8.18047658	63	1	1.07937	0.952381;
	62	1	0	0	0	0	1	1.01207706	-5.93165203	63	1	1.07937	0.952381;
	63	1	15.8	2	0	0	1	1.01097587	1.67580557	63	1	1.07937	0.952381;
	64	1	62.4	1	0	0	1	1.07386682	-6.71573733	225	1	1.08889	0.888889;
	65	1	11	2.8	0	0	1	1.04304481	-8.73322535	63	1	1.07937	0.952381;
	66	1	13.2	-7.9	0	0	1	1.02746087	-25.633745	63	1	1.06349	0.936508;
	67	1	0	0	0	0	1	1.04366499	-19.2642314	63	1	1.07937	0.920635;
	68	1	48.1	-0.1	0	0	1	1.01267075	-16.2993932	63	1	1.06349	0.936508;
	69	1	19.3	-2.7	0	0	1	1.04041981	-49.3299796	63	1	1.06349	0.952381;
	70	1	10.6	2.7	0	0	1	1.01490468	2.22865169	63	1	1.07937	0.952381;
	71	1	62.4	14.9	0	0	1	1.02681714	-19.6304592	63	1	1.04762	0.952381;
	72	1	0	0	0	0	1	1.08807642	-12.0358579	225	1	1.09027	1.00444;
	73	1	0	0	0	0	1	1.08805365	-12.0364609	225	1	1.09025	1.00444;
	74	1	50.4	-9.9	0	0	1	1.07413515	-6.59404049	225	1	1.08889	0.888889;
	75	1	22.3	1.8	0	0	1	1.05895282	-15.1355597	90	1	1.0673	0.977778;
	76	1	2.6	-0.4	0	0	1	1.07651863	4.91197919	225	1	1.08923	0.986667;
	77	1	36.8	-0.4	0	0	1	1.0169476	-16.0545255	63	1	1.06349	0.936508;
	78	1	0	0	0	0	1	1.01844477	-24.6902159	63	1	1.07937	0.920635;
	79	1	0	0	0	0	1	1.02332636	-15.7592333	63	1	1.04762	0.952381;
	80	1	32.3	7.3	0	0	1	1.07787075	-15.6188391	225	1	1.08889	1.00444;
	81	1	36.3	9.9	0	0	1	1.07788193	-15.6189565	225	1	1.08889	1.00444;
	82	1	11.7	1.6	0	0	1	1.01668253	-17.6636229	63	1	1.06349	0.936508;
	83	1	77.5	26.4	0	0	1	1.06072297	-18.0289523	225	1	1.08889	1.00444;
	84	1	-1.6	-1.2	0	0	1	1.01457575	-12.7630712	63	1	1.06349	0.936508;
	85	1	2.1	-2.1	0	0	1	1.03340374	-18.5335538	63	1	1.06349	0.936508;
	86	1	48.9	3.6	0	0	1	1.02037987	-38.5214284	90	1	1.06667	0.977778;
	87	1	0	0	0	0	1	1.01874198	1.41446816	63	1	1.07937	0.952381;
	88	1	13.5	-0.1	0	0	1	1.0154329	-21.6062126	63	1	1.06349	0.936508;
	89	1	25.4	0.8	0	0	1	1.03756012	-20.7805001	90	1	1.07778	0.977778;
	90	1	0.4	-1.4	0	0	1	0.942476579	-6.9098112	45	1	1	0.888889;
	91	1	1	0	0	0	1	0.943248259	-6.20627379	45	1	1	0.888889;
	92	1	28.6	3.2	0	0	1	1.00972983	-20.2789048	63	1	1.06349	0.968254;
	93	1	2.1	-2.5	0	0	1	0.958796742	-8.61712121	45	1	1	0.888889;
	94	1	17.5	-4.3	0	0	1	1.04368442	-19.6302102	90	1	1.06667	0.977778;
	95	1	46.5	7.6	0	0	1	1.03093654	-30.3994511	90	1	1.06667	0.977778;
	96	1	1.5	-0.7	0	0	1	1.03793332	-10.9790152	63	1	1.06349	0.936508;
	97	1	56.4	0.9	0	0	1	1.06511168	-25.6370963	63	1	1.07937	0.920635;
	98	1	7.4	-1.3	0	0	1	1.03796632	-15.3262868	63	1	1.07937	0.952381;
	99	1	26.9	3.1	0	0	1	1.0395011	-7.74766887	63	1	1.07937	0.952381;
	100	1	53.3	8.6	0	0	1	1.01017192	-16.6694106	63	1	1.06349	0.936508;
	101	1	17.7	0.5	0	0	1	1.00681271	-13.1819795	63	1	1.06349	0.936508;
	102	3	0	0	0	0	1	1.026	-20.3832518	63	1	1.07937	0.952381;
	103	1	18	-1.1	0	0	1	1.02691527	-6.36541063	63	1	1.07937	0.952381;
	104	1	0	0	0	0	1	1.06755129	-3.55992447	225	1	1.08889	0.986667;
	105	1	35.5	1	0	0	1	1.05569555	-6.09681251	225	1	1.08889	0.888889;
	106	1	49.8	7.5	0	0	1	1.05497883	-10.2151732	90	1	1.1	0.944444;
	107	1	77.6	8.1	0	0	1	1.05593152	-27.7564261	225	1	1.08444	1.00889;
	108	1	12.6	-0.4	0	0	1	1.06057429	-15.7575418	90	1	1.07778	0.977778;
	109	1	68.7	10.9	0	0	1	1.03791739	-14.3589858	63	1	1.06349	0.936508;
	110	1	0	0	0	0	1	1.02471349	-10.2458899	225	1	1.08889	0.933333;
	111	1	36.5	-7.9	0	0	1	1.00490279	-23.1214766	63	1	1.06349	0.968254;
	112	1	0	0	0	0	1	1.03087225	-19.3860653	63	1	1.04762	0.952381;
	113	1	0	0	0	0	1	1.07120053	-16.6168978	225	1	1.08889	1.00444;
	114	1	10.8	-0	0	0	1	1.04228402	-14.4109508	63	1	1.06349	0.936508;
	115	1	0	0	0	0	1	1.05940007	-4.9536105	380	1	1.10526	1.05263;
	116	1	0	0	0	0	1	1.05926699	-4.95240124	380	1	1.10526	1.05263;
	117	1	15.4	-1	0	0	1	1.01143617	-18.4164378	63	1	1.07937	0.952381;
	118	1	2	0.8	0	0	1	1.06122895	-14.8651326	90	1	1.06958	0.977778;
	119	1	37.2	5.3	0	0	1	1.02071506	-10.120787	63	1	1.06349	0.936508;
	120	1	17	-3.2	0	0	1	1.01936079	-9.09874678	63	1	1.06349	0.936508;
	121	1	17.6	3.9	0	0	1	1.02792782	-24.370206	63	1	1.07937	0.920635;
	122	2	0	0	0	0	1	1.026	-6.98100612	63	1	1.07937	0.952381;
	123	1	9	2.6	0	0	1	1.02433521	-7.12258157	63	1	1.07937	0.952381;
	124	1	8	-0.9	0	0	1	1.03687761	-25.0059404	90	1	1.06667	0.977778;
	125	1	10.5	-0.5	0	0	1	1.03660633	-9.73718786	63	1	1.07937	0.952381;
	126	1	0.3	-0.1	0	0	1	1.02900797	-19.213491	63	1	1.06349	0.936508;
	127	1	7.8	1.5	0	0	1	1.03093869	-19.2520028	63	1	1.04762	0.952381;
	128	1	11.8	7.6	0	0	1	1.02466148	-12.3246009	63	1	1.06349	0.968254;
	129	1	16.7	11.8	0	0	1	1.02330166	-10.5913039	63	1	1.06349	0.968254;
	130	1	0	0	0	0	1	1.04853243	-10.234113	225	1	1.08444	1.00889;
	131	1	103	13.6	0	0	1	1.04725413	-18.9230351	225	1	1.08444	1.00889;
	132	1	11.5	0	0	0	1	1.06233109	-21.9925731	90	1	1.07778	0.922222;
	133	1	2.1	0.5	0	0	1	1.01860011	-19.0709112	63	1	1.04762	0.952381;
	134	1	83.5	23.6	0	0	1	1.0621895	-16.4776065	225	1	1.08889	1.00444;
	135	1	0	0	0	0	1	1.06977127	-18.6816498	225	1	1.08889	1.00444;
	136	1	21.9	-0.2	0	0	1	1.04391982	-29.8843892	90	1	1.07778	0.977778;
	137	1	9.6	-4.4	0	0	1	1.03601672	-17.1253946	63	1	1.06349	0.968254;
	138	1	0	0	0	0	1	1.04109884	-14.6832648	150	1	1.08	0.966667;
	139	1	15.7	2.2	0	0	1	1.05124749	-19.4633909	63	1	1.07937	0.920635;
	140	1	0	0	0	80	1	1.08264555	-16.3557384	225	1	1.08889	1;
	141	1	0	0	0	0	1	1.08934232	-13.0970356	380	1	1.10526	1.05263;
	142	1	14.8	5.8	0	0	1	1.01617232	-11.4288672	63	1	1.07937	0.952381;
	143	1	0	0	0	0	1	1.06475215	-7.27056014	225	1	1.08889	0.986667;
	144	1	23.3	-10.3	0	0	1	1.04710211	-10.7128601	90	1	1.11111	0.955556;
	145	1	27.6	5.9	0	0	1	1.07490608	-6.45146512	225	1	1.08889	0.968889;
	146	1	0	0	0	0	1	1.08278855	-3.92536105	380	1	1.10526	1;
	147	1	29	5.5	0	0	1	1.0386995	-15.174012	63	1	1.06349	0.936508;
	148	1	6.7	2.4	0	0	1	1.02565634	-13.714408	63	1	1.06349	0.936508;
	149	1	17.9	6.1	0	0	1	1.04244851	-30.1075951	90	1	1.06667	0.977778;
	150	1	44.5	6.4	0	0	1	1.02473028	-10.1263113	63	1	1.06349	0.936508;
	151	1	0	0	0	0	1	0.988505783	-26.8202154	63	1	1.06349	0.968254;
	152	1	38.3	8.8	0	7.7	1	0.988353124	-25.5486396	63	1	1.06349	0.968254;
	153	1	23.2	-2.6	0	0	1	1.03205599	-13.4489519	63	1	1.06349	0.936508;
	154	1	0	0	0	0	1	1.06299186	-9.75398675	225	1	1.08889	0.933333;
	155	2	0	0	0	0	1	0.976929148	-24.3708403	63	1	1.07937	0.920635;
	156	1	0	0	0	0	1	0.988466972	-26.8231599	63	1	1.06349	0.968254;
	157	1	0.3	3.1	0	0	1	0.898643427	-8.70269787	45	1	1	0.888889;
	158	2	0	0	0	0	1	0.947	-10.2100054	45	1	1	0.888889;
	159	1	0	0	0	0	1	1.00930424	-12.4276133	63	1	1.06349	0.936508;
	160	1	35.2	5.6	0	0	1	1.06351742	-4.51894158	225	1	1.08889	0.888889;
	161	1	38.2	8.7	0	0	1	1.06337095	-4.52500071	225	1	1.08889	0.888889;
	162	1	0.7	-1.4	0	0	1	1.02519745	-18.1624013	90	1	1.06667	0.977778;
	163	1	0	0	0	0	1	1.02132475	-6.12405355	63	1	1.07937	0.952381;
	164	1	0	0	0	0	1	1.02132475	-6.12405355	63	1	1.07937	0.952381;
	165	1	16.7	9.2	0	0	1	1.06915268	-25.0762238	20	1	1.15	0.8;
	166	1	10.1	2.4	0	0	1	1.04140931	-29.4846159	90	1	1.06667	0.977778;
	167	1	13.6	0.6	0	0	1	1.03414444	-29.8034013	90	1	1.06667	0.977778;
	168	1	0	0	0	0	1	1.06923697	-25.0695908	225	1	1.08444	1.00444;
	169	1	10.8	-1	0	0	1	1.02614801	-27.4252079	90	1	1.06667	0.977778;
	170	1	70.4	11.6	0	0	1	1.04971714	-21.1649009	90	1	1.07778	0.977778;
	171	1	26.5	-0.4	0	0	1	1.04530758	-23.8352253	90	1	1.07778	0.977778;
	172	1	0	0	0	0	1	1.06424248	-19.7996401	225	1	1.08889	1.00444;
	173	1	27.7	8.5	0	0	1	1.06988751	-6.6360669	90	1	1.08889	0.933333;
	174	1	47.4	4.6	0	0	1	1.06571181	-11.1760476	90	1	1.11111	0.955556;
	175	1	0	0	0	0	1	1.00712011	-22.9595227	63	1	1.07937	0.920635;
	176	1	0	0	0	0	1	1.01591902	-20.6444117	63	1	1.07937	0.920635;
	177	2	0	0	0	0	1	1.07577555	-17.802203	150	1	1.1	0.9;
	178	1	0	0	0	0	1	1.08255583	-16.1808543	225	1	1.08889	1.00444;
	179	1	0	0	0	0	1	1.08255606	-16.1808555	225	1	1.08889	1.00444;
	180	1	0	0	0	-32	1	1.00063978	-19.4136199	20	1	1.15	0.8;
	181	1	0	0	0	-32	1	1.02321607	-19.3656671	20	1	1.15	0.8;
	182	1	0	0	0	0	1	1.03104351	-19.2448014	63	1	1.04762	0.952381;
	183	1	0	0	0	0	1	1.08255454	-16.1808473	225	1	1.08889	1.00444;
	184	1	12.9	-4.6	0	0	1	1.04936002	-26.2064878	63	1	1.07937	0.920635;
	185	1	16	3.1	0	0	1	1.03115253	-10.5549766	63	1	1.06349	0.936508;
	186	1	4.8	-0.4	0	0	1	1.01561152	-15.3256518	63	1	1.07937	0.952381;
	187	1	5	1.4	0	0	1	1.0668693	-18.4990416	90	1	1.07778	0.977778;
	188	1	28.7	4	0	0	1	1.00748138	-12.2660288	63	1	1.07937	0.952381;
	189	1	1.1	0.3	0	0	1	1.02537628	-17.4692252	90	1	1.06667	0.977778;
	190	2	0	0	0	0	1	1.02784401	-24.2276974	63	1	1.07937	0.920635;
	191	1	16.2	1.6	0	0	1	1.02872286	-23.7090813	63	1	1.07937	0.920635;
	192	2	0	0	0	0	1	0.948568517	-8.4102851	45	1	1	0.888889;
	193	1	13.8	-0.3	0	0	1	1.02845077	-27.4690924	90	1	1.06667	0.977778;
	194	1	7.4	-1.5	0	0	1	1.0457218	-24.2104703	63	1	1.07937	0.920635;
	195	1	7.9	4.8	0	0	1	1.07057329	-17.0740705	225	1	1.08889	1.00444;
	196	1	1	-0.3	0	0	1	1.04460986	-25.5235658	63	1	1.07937	0.920635;
	197	1	0	0	0	0	1	1.08953885	-16.5478115	63	1	1.09837	0.952381;
	198	1	0	0	0	0	1	1.08954033	-16.547854	63	1	1.09837	0.952381;
	199	1	24.4	1.2	0	0	1	1.01128259	-29.3280137	63	1	1.07937	0.920635;
	200	1	9.3	-2.7	0	0	1	1.0254829	-25.0320417	63	1	1.07937	0.920635;
	201	1	12.8	1.9	0	0	1	1.03102054	-35.5161362	90	1	1.06667	0.977778;
	202	1	0	0	0	0	1	1.07094114	-23.6705623	225	1	1.08889	1;
	203	1	73.3	24.6	0	0	1	1.05158135	-6.77628156	225	1	1.08889	0.888889;
	204	1	41.8	1.4	0	0	1	0.997267107	-29.2082306	63	1	1.06349	0.968254;
	205	1	17.5	2.5	0	0	1	1.06134651	-3.50952492	90	1	1.1	0.944444;
	206	1	0	0	0	0	1	1.07364841	-0.271756196	225	1	1.08889	0.968889;
	207	1	0	0	0	0	1	1.08642195	3.217659	380	1	1.10526	1;
	208	1	50.1	6.8	0	0	1	1.00740177	-27.0158118	63	1	1.06349	0.968254;
	209	1	32.9	4.1	0	0	1	0.995341812	-13.5093314	63	1	1.06349	0.968254;
	210	1	14.4	-1.6	0	0	1	1.04431085	-16.4446123	90	1	1.07778	0.977778;
	211	1	2.9	0.1	0	0	1	1.0209268	-21.5184245	63	1	1.06349	0.968254;
	212	1	40.8	5.5	0	0	1	0.999945838	-18.463826	63	1	1.06349	0.968254;
	213	1	31.8	12.2	0	0	1	0.99989816	-18.3275276	63	1	1.06349	0.968254;
	214	1	0	0	0	0	1	1.04455142	-18.2613655	225	1	1.08444	1.00889;
	215	1	0	0	0	0	1	1.04446341	-18.2491527	225	1	1.08444	1.00889;
	216	1	37.5	3.1	0	30.4	1	1.0479816	-26.1154157	90	1	1.07778	0.977778;
	217	1	0	0	0	0	1	1.06731197	-22.7602315	225	1	1.08889	1.00444;
	218	1	20.7	-2.4	0	0	1	1.00641382	-12.0985976	63	1	1.06349	0.952381;
	219	1	25	3.4	0	0	1	1.01402669	-25.9865069	90	1	1.06667	0.977778;
	220	1	1.6	-0.1	0	0	1	1.03754586	-15.7225473	90	1	1.06667	0.977778;
	221	1	10.4	-3.7	0	0	1	1.03634719	-26.3552098	90	1	1.06667	0.977778;
	222	1	11	1.5	0	0	1	1.01890835	1.84749339	63	1	1.07937	0.952381;
	223	1	14.3	-8.5	0	0	1	1.0314322	-19.3852873	63	1	1.06349	0.936508;
	224	1	0	0	0	0	1	1.0833291	-16.5311928	225	1	1.08902	0.933333;
	225	1	40.8	2	0	0	1	1.01373019	-25.6513502	63	1	1.07937	0.920635;
	226	2	0	0	0	0	1	1.07572651	-17.8012309	150	1	1.1	0.9;
	227	1	37.6	6	0	0	1	1.040671	-19.5261369	225	1	1.08444	1.00889;
	228	1	38.6	44	0	0	1	1.04005443	-19.5206892	225	1	1.08444	1.00889;
	229	1	4	0.2	0	0	1	1.02357818	-48.738366	63	1	1.06349	0.952381;
	230	1	9.9	-2	0	0	1	1.02115841	-49.6414311	63	1	1.06349	0.952381;
	231	1	12.4	-5.7	0	0	1	1.06079128	-21.7909332	63	1	1.07937	0.920635;
	232	1	0	0	0	0	1	1.04257201	-19.3668715	225	1	1.08889	0.977778;
	233	1	6	-2.4	0	0	1	1.03494436	-26.1442216	90	1	1.06667	0.977778;
	234	1	6.4	1	0	0	1	1.03756332	-8.79828267	90	1	1.08889	0.933333;
	235	1	0	0	0	0	1	1.05024927	-7.27545561	20	1	1.15	0.8;
	236	1	23.9	8.5	0	0	1	1.05024927	-7.27545561	90	1	1.08889	0.933333;
	237	1	13.7	3.1	0	0	1	1.06345974	-3.90884141	225	1	1.08889	0.888889;
	238	1	26.6	1.5	0	0	1	1.04584952	-11.691753	90	1	1.07778	0.922222;
	239	1	46.2	6.8	0	0	1	1.01640885	-12.7171987	63	1	1.06349	0.936508;
	240	1	21.4	-0.9	0	0	1	1.02081588	-21.4046776	90	1	1.06667	0.977778;
	241	1	52.1	3.6	0	0	1	1.01216145	-54.1608125	63	1	1.06349	0.952381;
	242	1	41.4	8.3	0	0	1	1.01851031	-24.6863423	63	1	1.07937	0.920635;
	243	1	45.4	4.4	0	0	1	1.02610871	-25.2386931	90	1	1.07778	0.922222;
	244	1	45.5	4.8	0	0	1	1.00559282	-26.3261221	63	1	1.06349	0.968254;
	245	1	26.7	-3.4	0	0	1	1.0153641	-28.1211279	63	1	1.07937	0.920635;
	246	1	53.1	3.3	0	0	1	1.04417332	-23.3365796	90	1	1.07778	0.922222;
	247	1	12.8	-2.1	0	0	1	1.02770092	-25.5767136	63	1	1.07937	0.920635;
	248	2	12.3	4.9	0	0	1	0.998957395	-6.52985662	63	1	1.06349	0.936508;
	249	1	0	0	0	0	1	1.05315045	-5.09690524	225	1	1.08889	0.933333;
	250	1	28.9	9.4	0	0	1	1.07653937	-15.5673615	225	1	1.08889	1.00444;
	251	1	24	-5.3	0	0	1	1.04223396	-29.4246157	63	1	1.07937	0.920635;
	252	1	23.5	-7.3	0	0	1	1.01003081	-18.8411162	63	1	1.07937	0.952381;
	253	1	6.1	-0	0	0	1	1.02439873	-28.4833402	90	1	1.06667	0.977778;
	254	1	9.5	-1.6	0	0	1	1.02651059	-18.0807478	90	1	1.06667	0.977778;
	255	1	48.5	6.8	0	0	1	1.03777653	-15.6172029	63	1	1.07937	0.952381;
	256	1	16.9	0.4	0	0	1	1.02667549	-18.6425292	63	1	1.07937	0.952381;
	257	1	6.9	-1.4	0	0	1	1.0166443	-21.2448193	63	1	1.06349	0.936508;
	258	2	4.7	0	0	0	1	1.03176849	-23.8302186	63	1	1.07937	0.920635;
	259	1	0	0	0	0	1	1.07064288	-23.7059189	225	1	1.08889	1;
	260	1	0	0	0	0	1	1.07065954	-18.3956713	90	1	1.07778	0.922222;
	261	1	29.7	1.1	0	0	1	1.04455513	-13.7903735	63	1	1.07937	0.952381;
	262	1	0	0	0	0	1	1.07485471	-11.8557075	225	1	1.08889	0.986667;
	263	2	0	0	0	0	1	0.998	-30.0337427	63	1	1.07937	0.920635;
	264	1	0	0	0	80	1	1.07058737	-4.22946014	225	1	1.08889	0.888889;
	265	1	0	0	0	0	1	1.05728652	-5.6364011	225	1	1.08889	0.888889;
	266	1	0	0	0	0	1	1.06912114	-1.11289957	380	1	1.10526	1.01316;
	267	1	0	0	0	0	1	1.01211426	-18.2933286	63	1	1.04762	0.952381;
	268	1	26.3	6.4	0	0	1	1.07380853	-15.4478725	225	1	1.08889	1.00444;
	269	1	57.3	10.1	0	0	1	1.07715488	-15.8043008	225	1	1.08889	1.00444;
	270	1	10.5	9.5	0	0	1	0.985300364	-20.1301779	63	1	1.07937	0.920635;
	271	1	22.7	2.7	0	0	1	0.996596216	-30.177767	63	1	1.07937	0.920635;
	272	1	0	0	0	0	1	1.04417427	-11.9082643	225	1	1.08889	0.977778;
	273	1	0	0	0	0	1	1.04428521	-11.9095302	225	1	1.08889	0.977778;
	274	1	6.7	7.7	0	0	1	1.02102244	-16.2655585	63	1	1.06349	0.968254;
	275	1	55.4	0.8	0	0	1	1.0419109	-12.7930078	225	1	1.08444	1.00889;
	276	1	43.8	8.2	0	0	1	1.06461126	-10.9852931	90	1	1.1	0.944444;
	277	1	0	0	0	0	1	1.07450989	-21.2691517	225	1	1.08444	1.00444;
	278	1	0	0	0	0	1	1.08470748	-15.5449932	380	1	1.10263	1.04211;
	279	1	1.8	4.2	0	0	1	1.03216927	-24.3337079	90	1	1.06667	0.977778;
	280	1	-1.5	4.3	0	0	1	1.07426227	-21.3258349	225	1	1.08444	1.00444;
	281	1	10	-2.1	0	0	1	1.02229483	-22.9272514	63	1	1.06349	0.936508;
	282	1	48	11.3	0	0	1	1.04925383	-27.5708125	90	1	1.07778	0.977778;
	283	1	12.8	0.9	0	0	1	1.01586356	-12.0749318	63	1	1.07937	0.952381;
	284	2	0	0	0	0	1	0.998957886	-6.52986817	63	1	1.06349	0.936508;
	285	1	10.8	0.2	0	0	1	1.02985487	-30.6494951	90	1	1.06667	0.977778;
	286	1	14.7	3.5	0	0	1	1.01268114	1.39309195	63	1	1.07937	0.952381;
	287	1	1.4	5	0	0	1	1.07742583	-15.2257866	225	1	1.08889	1.00444;
	288	1	19.4	7	0	0	1	1.07736774	-15.2349312	225	1	1.08889	1.00444;
	289	1	25.8	-4.9	0	0	1	1.04404877	-19.5295311	90	1	1.06667	0.977778;
	290	1	33.5	-2.7	0	0	1	1.02766489	-27.9113971	90	1	1.06667	0.977778;
	291	1	43.4	2.2	0	0	1	1.07426221	2.66883965	225	1	1.08889	0.888889;
	292	1	7.2	2.9	0	0	1	1.07737748	-6.37786032	90	1	1.11111	0.955556;
	293	1	15.3	-1.9	0	0	1	1.02089988	-26.2737466	63	1	1.07937	0.920635;
	294	1	0	0.4	0	0	1	1.01642449	-14.8041969	63	1	1.06349	0.936508;
	295	1	42	5.2	0	0	1	1.01643683	-14.8045767	63	1	1.06349	0.936508;
	296	1	0	-0.9	0	0	1	1.01593044	-13.7633762	63	1	1.07937	0.952381;
	297	1	19.9	2.7	0	0	1	1.06230898	-6.84875766	225	1	1.08889	0.888889;
	298	1	7.7	-0.1	0	0	1	1.01290458	-17.358336	63	1	1.07937	0.952381;
	299	1	5	0.5	0	0	1	0.992599189	-20.6871606	63	1	1.06349	0.936508;
	300	1	10	0	0	0	1	1.00249608	-12.3919552	63	1	1.06349	0.936508;
	301	1	0	0.1	0	0	1	1.07058324	-1.46297943	90	1	1.11111	0.955556;
	302	1	53.3	18.6	0	0	1	1.07012512	1.26483646	225	1	1.08889	0.888889;
	303	1	2.9	0.4	0	0	1	1.00082757	-13.0627254	63	1	1.06349	0.968254;
	304	1	12.3	2	0	0	1	1.01784318	-11.5381372	63	1	1.06349	0.936508;
	305	1	33.3	6.1	0	0	1	1.0024417	-30.2855818	63	1	1.07937	0.920635;
	306	1	30.8	-4.2	0	0	1	0.99608844	-24.2312076	63	1	1.06349	0.968254;
	307	2	0	0	0	0	1	1.038	-16.9184982	63	1	1.06349	0.936508;
	308	1	14	-0.3	0	0	1	1.01542944	-12.2267562	63	1	1.07937	0.952381;
	309	1	21.3	-2.9	0	0	1	1.01686931	-36.210164	90	1	1.06667	0.977778;
	310	1	0.5	-0	0	0	1	1.01875222	-28.6718877	63	1	1.07937	0.920635;
	311	1	9	2.5	0	0	1	1.02680093	-28.4620284	63	1	1.06349	0.968254;
	312	1	14	4.5	0	0	1	1.02706539	-28.4844609	63	1	1.06349	0.968254;
	313	1	0.7	-0.3	0	0	1	1.01748878	-28.5504397	90	1	1.06667	0.977778;
	314	1	8	-2.5	0	0	1	1.03084583	-5.9046444	90	1	1.07778	0.922222;
	315	1	28.8	2.9	0	0	1	1.03830651	-20.9475457	63	1	1.07937	0.920635;
	316	1	0	0	0	0	1	1.06792068	-17.3769618	225	1	1.08889	1;
	317	1	21.2	-1.2	0	0	1	1.0658823	-18.6887853	90	1	1.07778	0.977778;
	318	1	32.2	7	0	0	1	1.01183268	-27.1184946	63	1	1.07937	0.920635;
	319	2	3	0	0	0	1	1.04675137	-24.4994322	63	1	1.07937	0.920635;
	320	1	13.5	4.9	0	0	1	0.998521326	-20.4910145	63	1	1.04762	0.952381;
	321	1	0	0	0	0	1	1.04565592	-27.7327486	63	1	1.07937	0.920635;
	322	1	31.1	4	0	0	1	1.06416896	-8.75098601	90	1	1.1	0.944444;
	323	1	0	0	0	0	1	1.03169727	-25.0656275	63	1	1.07937	0.920635;
	324	1	0	0	0	0	1	1.03172044	-15.4101827	225	1	1.08889	1;
	325	1	0	0	0	0	1	1.07028414	-15.4367147	380	1	1.10526	1.05263;
	326	1	22	3.3	0	0	1	1.02460953	-13.0839719	63	1	1.06349	0.936508;
	327	2	17.1	5.7	0	0	1	1.02154288	-13.8068543	63	1	1.06349	0.936508;
	328	1	1.1	20.6	0	0	1	1.02502227	-21.0004303	63	1	1.07937	0.920635;
	329	1	0	0	0	0	1	1.04443684	-18.264062	225	1	1.08889	1;
	330	1	31.8	2	0	0	1	1.00529598	-23.6235243	63	1	1.07937	0.920635;
	331	1	58.7	0.1	0	0	1	1.06166741	-9.56707417	90	1	1.1	0.944444;
	332	1	71.1	-5.3	0	0	1	1.04292014	-24.6046164	63	1	1.07937	0.920635;
	333	1	0	0	0	0	1	1.0669942	-20.9446367	225	1	1.08889	1;
	334	2	9.2	0.5	0	0	1	1.02713644	-30.332592	63	1	1.06349	0.968254;
	335	1	0	0	0	0	1	1.0368028	-25.5697847	150	1	1.08	0.966667;
	336	1	7.9	-3.6	0	0	1	1.04875764	-47.3567981	63	1	1.06349	0.952381;
	337	1	17	7	0	0	1	1.01822275	-18.6042284	63	1	1.06349	0.936508;
	338	2	0.7	0	0	0	1	1.013	-24.2871515	63	1	1.07937	0.920635;
	339	1	13.2	-1.3	0	0	1	1.04153617	-29.1847209	63	1	1.07937	0.920635;
	340	2	0	0	0	0	1	1.04693637	-25.2716553	63	1	1.07937	0.920635;
	341	1	16.5	3.4	0	0	1	1.02517732	-27.5368795	63	1	1.07937	0.920635;
	342	1	21.6	-1.4	0	0	1	1.03387959	-25.7960518	90	1	1.06667	0.977778;
	343	1	7	-11.2	0	0	1	1.06867808	-25.4861993	63	1	1.07937	0.920635;
	344	1	9.4	-3.3	0	0	1	1.03188215	-9.18331303	63	1	1.07937	0.952381;
	345	1	0	0	0	0	1	1.04760744	-7.13959213	225	1	1.08889	0.986667;
	346	1	12.4	-3.5	0	0	1	1.0160226	-19.3730229	63	1	1.06349	0.968254;
	347	1	24.7	-8.3	0	0	1	1.05456828	-14.6915108	90	1	1.07778	0.977778;
	348	1	12.5	-0.3	0	0	1	1.05954623	-8.00355904	225	1	1.08444	1.00889;
	349	1	-1.3	-0	0	0	1	1.02626441	-28.7680645	63	1	1.06349	0.968254;
	350	1	47.8	5.6	0	0	1	1.05589121	-11.9950971	90	1	1.1	0.944444;
	351	1	0	0	0	0	1	1.09290962	-3.16334822	380	1	1.10526	1.04211;
	352	1	0	0	0	0	1	1.09365624	-3.23625348	380	1	1.10526	1.04211;
	353	1	9.4	3	0	0	1	1.07432269	-16.1794901	225	1	1.08889	1;
	354	1	3.4	5.7	0	0	1	1.06837629	-18.3720721	225	1	1.08889	1.00444;
	355	1	28.5	-9.7	0	0	1	1.01774412	-19.1945688	63	1	1.04762	0.952381;
	356	1	3.3	1.4	0	0	1	1.01792437	-19.1090661	63	1	1.07937	0.920635;
	357	1	10	3	0	0	1	1.0389146	-7.61205993	63	1	1.07937	0.920635;
	358	2	6	2	0	0	1	1.02495762	-21.17747	63	1	1.07937	0.920635;
	359	1	18.4	5.5	0	0	1	0.999519058	-11.7725496	63	1	1.07937	0.952381;
	360	1	21.5	5.6	0	0	1	1.02538985	-21.1488886	63	1	1.07937	0.920635;
	361	1	26.4	1.9	0	0	1	1.01613636	-25.1721309	63	1	1.06349	0.968254;
	362	1	44.6	4.8	0	0	1	1.02442268	-23.9344137	63	1	1.07937	0.920635;
	363	1	0	0	0	0	1	1.06419776	-19.9333479	150	1	1.1	0.9;
	364	1	0	0	0	0	1	1.05476887	-19.4148241	225	1	1.08889	1;
	365	1	9.3	4.2	0	0	1	1.07060844	-6.69348763	90	1	1.08889	0.933333;
	366	2	-1.8	0	0	0	1	1.078	-15.6458154	225	1	1.08889	1.00444;
	367	1	-0.1	-0	0	0	1	1.02488985	-9.74558839	63	1	1.06349	0.936508;
	368	1	0	0	0	0	1	1.05318857	-6.461084	225	1	1.08889	0.933333;
	369	1	0	0	0	0	1	1.07982242	-5.18089319	380	1	1.10526	1.03947;
	370	1	0	0	0	0	1	1.07322885	-5.99045078	380	1	1.10526	1.03947;
	371	1	0	0	0	0	1	1.06967144	-18.8004068	225	1	1.08889	1.00444;
	372	1	44.9	8.3	0	0	1	1.06144994	-16.6405448	225	1	1.08889	1.00444;
	373	1	10.7	2.6	0	0	1	1.01058194	1.6448319	63	1	1.07937	0.952381;
	374	1	0	0	0	0	1	1.04032543	-1.92268018	225	1	1.08889	0.986667;
	375	1	21.6	6.7	0	0	1	1.06949089	-18.8133836	225	1	1.08889	1.00444;
	376	1	23.6	2.6	0	0	1	0.99164081	-49.6608234	63	1	1.06349	0.952381;
	377	1	13.4	1.1	0	0	1	1.01722411	-31.377903	90	1	1.06667	0.977778;
	378	1	47.4	-2.8	0	0	1	1.02839415	-38.7288001	63	1	1.06349	0.952381;
	379	1	4.9	-2.9	0	0	1	1.00825924	-8.77149702	63	1	1.07937	0.952381;
	380	1	34.9	1.4	0	0	1	1.03406881	-17.3655098	63	1	1.06349	0.936508;
	381	1	0	0	0	0	1	1.05252918	-12.6893659	225	1	1.08889	0.933333;
	382	1	0	0	0	0	1	1.07490127	-7.87681556	380	1	1.10526	1.03947;
	383	1	46.5	8.6	0	0	1	1.03306189	-24.2227996	90	1	1.07778	0.977778;
	384	1	13.8	-0.4	0	0	1	1.01624722	-5.52338799	63	1	1.07937	0.952381;
	385	1	44.6	16.5	0	0	1	1.03045907	-10.7473796	63	1	1.07937	0.920635;
	386	1	17.7	1.8	0	0	1	0.998063497	-27.428193	63	1	1.07937	0.920635;
	387	1	16	8.3	0	0	1	1.01796109	-1.87832134	63	1	1.07937	0.920635;
	388	1	42.8	11.5	0	0	1	1.07515895	-15.7885637	225	1	1.08889	1;
	389	1	7.4	-3.1	0	0	1	1.05600921	-20.8379711	90	1	1.07778	0.922222;
	390	1	42.1	0.3	0	0	1	1.05386376	-10.6850267	90	1	1.1	0.944444;
	391	1	30	3.7	0	0	1	1.03321793	-16.0715639	63	1	1.06349	0.936508;
	392	1	1.9	0	0	0	1	1.02469246	-16.4039494	63	1	1.06349	0.968254;
	393	1	22.4	-6	0	0	1	1.00254946	-25.1896666	63	1	1.07937	0.920635;
	394	1	23.2	0.1	0	0	1	1.00551165	-27.6165863	63	1	1.06349	0.968254;
	395	1	8	1	0	0	1	1.02632083	-12.3606927	63	1	1.07937	0.952381;
	396	1	6	2	0	0	1	1.04093043	-20.5311604	63	1	1.07937	0.920635;
	397	1	33	0.9	0	0	1	1.04103211	-20.5250313	63	1	1.07937	0.920635;
	398	1	0	0	0	0	1	1.03613682	-4.61299184	63	1	1.07937	0.952381;
	399	1	13	-2	0	0	1	1.02994694	-28.1578768	63	1	1.07937	0.920635;
	400	1	7	0.8	0	0	1	1.03047509	-30.6261561	90	1	1.06667	0.977778;
	401	1	2.8	2.2	0	0	1	1.0743367	-20.6495343	63	1	1.07937	0.920635;
	402	1	20.4	2.6	0	0	1	1.03720505	-22.0638479	63	1	1.07937	0.920635;
	403	1	4	0.1	0	0	1	1.03138701	-17.7698433	63	1	1.06349	0.936508;
	404	1	20.3	-0.6	0	0	1	1.03717089	-26.1732951	90	1	1.07778	0.922222;
	405	1	22.5	6.6	0	0	1	1.03018634	-13.1859272	63	1	1.06349	0.936508;
	406	1	31.1	7.4	0	0	1	1.01878267	-16.8535739	63	1	1.06349	0.936508;
	407	1	5.3	2.9	0	0	1	1.01606914	-15.7189214	63	1	1.06349	0.936508;
	408	1	51.7	-1	0	0	1	1.02744012	-20.3184428	90	1	1.06667	0.977778;
	409	1	1	-0.3	0	0	1	1.03154195	-26.3739532	90	1	1.06667	0.977778;
	410	1	10.9	-4	0	0	1	1.06104567	-28.6096708	63	1	1.07937	0.920635;
	411	1	17.8	1.9	0	0	1	1.02642141	-34.2970007	90	1	1.06667	0.977778;
	412	1	16.6	-0.8	0	0	1	1.0243406	-27.2653173	90	1	1.06667	0.977778;
	413	1	23.8	-17.9	0	0	1	1.00713327	-7.93973031	63	1	1.07937	0.952381;
	414	1	27.8	-0.1	0	0	1	1.03824206	-47.5856548	63	1	1.06349	0.952381;
	415	1	-0.1	0	0	0	1	0.983519262	-19.4812041	63	1	1.06349	0.936508;
	416	1	6.5	-2.8	0	0	1	1.02101962	-19.6529905	63	1	1.07937	0.952381;
	417	1	5.5	-42.8	0	0	1	1.07027502	-18.9689174	225	1	1.08889	1.00444;
	418	1	16.1	0.2	0	0	1	1.02437917	-30.7133153	63	1	1.07937	0.920635;
	419	1	12	3.4	0	0	1	1.02391091	-17.1147164	63	1	1.04762	0.952381;
	420	1	26.5	7.8	0	0	1	1.05017605	-27.8575427	63	1	1.07937	0.920635;
	421	1	-5.4	1	0	0	1	1.05316734	-27.4411569	63	1	1.07937	0.920635;
	422	1	0	0	0	0	1	1.0213674	-32.6226356	63	1	1.06349	0.968254;
	423	1	0	0	0	0	1	1.06236823	-21.3625991	63	1	1.07937	0.920635;
	424	1	0	0	0	0	1	1.08375575	-18.321448	225	1	1.08889	1;
	425	1	0	0	0	0	1	1.03001404	-2.06293186	63	1	1.07937	0.952381;
	426	1	0	0	0	0	1	1.06074285	1.37959773	225	1	1.08889	0.986667;
	427	1	0	0	0	0	1	1.02816489	-17.7068912	63	1	1.04762	0.952381;
	428	1	0.3	0.1	0	0	1	1.0145621	-9.65841265	63	1	1.06349	0.936508;
	429	1	6	0	0	0	1	1.03065754	-40.1020666	63	1	1.06349	0.952381;
	430	1	53.8	7.9	0	0	1	1.02581281	-21.4736763	63	1	1.06349	0.968254;
	431	1	96.4	23.6	0	0	1	1.07979724	-18.0153204	225	1	1.08889	1.00444;
	432	1	12	0.1	0	0	1	1.04416104	-25.6956031	63	1	1.07937	0.920635;
	433	1	23.7	-3.2	0	0	1	1.0171402	-35.3267023	63	1	1.07937	0.920635;
	434	1	0.3	1.7	0	0	1	1.00726508	-17.6188176	63	1	1.04762	0.952381;
	435	1	14.3	-5.6	0	0	1	1.01267836	-13.4981468	63	1	1.06349	0.936508;
	436	1	35.5	3.5	0	0	1	1.02447372	-25.2046281	90	1	1.07778	0.922222;
	437	1	23.1	-7.2	0	0	1	1.00734391	-17.15864	63	1	1.06349	0.968254;
	438	1	1	-1	0	0	1	1.04682677	-9.98444499	63	1	1.09524	0.904762;
	439	1	10.9	-2	0	0	1	1.01164129	-18.7423522	63	1	1.04762	0.952381;
	440	1	11.5	0.6	0	0	1	1.01328285	-12.1477134	63	1	1.07937	0.952381;
	441	2	0	0	0	0	1	1.01802196	-26.8491735	63	1	1.07937	0.920635;
	442	1	4.2	0.6	0	0	1	1.02617958	-14.3048437	63	1	1.06349	0.936508;
	443	1	22.9	1.2	0	0	1	1.02371301	3.14944498	63	1	1.07937	0.952381;
	444	1	10	3.2	0	0	1	1.07009537	-10.1699741	90	1	1.11111	0.955556;
	445	1	0	0	0	0	1	1.06956692	-10.8050922	90	1	1.11111	0.955556;
	446	1	25.8	5.1	0	0	1	1.07976382	-12.0040839	90	1	1.11111	0.955556;
	447	1	0	0	0	0	1	1.04503869	-7.20146703	225	1	1.08889	0.924444;
	448	2	0	0	0	0	1	0.989521056	-12.3058851	63	1	1.06349	0.968254;
	449	1	0	0	0	0	1	1.01653709	1.60533559	63	1	1.07937	0.952381;
	450	1	0	0	0	0	1	1.08000811	5.01448757	225	1	1.09367	0.986667;
	451	1	0	0	0	0	1	1.08854061	6.419945	380	1	1.10526	1.03947;
	452	1	1.6	0.3	0	0	1	0.988534171	-25.7937697	63	1	1.07937	0.920635;
	453	1	0	0	0	0	1	1.03148915	-43.4374148	63	1	1.06349	0.952381;
	454	1	0	0	0	0	1	1.05750585	-39.0351346	225	1	1.08444	1.00444;
	455	1	23.5	2	0	0	1	1.01961166	-24.8345952	63	1	1.07937	0.920635;