function mpc = case2737sop_res
%CASE2737SOP_RES

%% MATPOWER Case Format : Version 2
mpc.version = '2';

%%-----  Power Flow Data  -----%%
%% system MVA base
mpc.baseMVA = 100;

%% bus data
%	bus_i	type	Pd	Qd	Gs	Bs	area	Vm	Va	baseKV	zone	Vmax	Vmin	lam_P	lam_Q	mu_Vmax	mu_Vmin
mpc.bus = [
	1	1	0	0	0	0	1	1.07609644	3.34110587	220	1	1.11	0.95	89.4822	0.1770	0.0000	0.0000;
	2	1	0	0	0	0	1	1.08697767	2.19107023	220	1	1.11	0.95	89.8246	-0.0341	0.0000	0.0000;
	3	1	0	0	0	0	1	1.07995742	-13.1695589	220	1	1.11	0.95	96.4024	-0.3433	0.0000	0.0000;
	4	1	0	0	0	0	1	1.0747308	-0.139546128	220	1	1.11	0.95	90.7381	0.0166	0.0000	0.0000;
	5	1	0	0	0	0	1	1.07470477	-0.134948185	220	1	1.11	0.95	90.7382	0.0171	0.0000	0.0000;
	6	1	0	0	0	0	1	1.07342311	-7.69891174	220	1	1.11	0.95	93.2099	-0.4768	0.0000	0.0000;
	7	1	0	0	0	0	1	1.07350474	-7.69641892	220	1	1.11	0.95	93.2067	-0.4782	0.0000	0.0000;
	8	1	0	0	0	-50	1	1.03614301	-5.65361156	400	1	1.05	0.95	92.8049	-0.7547	0.0000	0.0000;
	9	1	0	0	0	0	1	1.03617319	-5.6532518	400	1	1.05	0.95	92.8043	-0.7555	0.0000	0.0000;
	10	1	0	0	0	0	1	1.06590054	-7.25535575	220	1	1.11	0.95	93.4502	-0.3129	0.0000	0.0000;
	11	1	0	0	0	0	1	1.06585608	-7.25882605	220	1	1.11	0.95	93.4515	-0.3114	0.0000	0.0000;
	12	1	0	0	0	0	1	1.0658339	-7.25591871	220	1	1.11	0.95	93.4509	-0.3098	0.0000	0.0000;
	13	1	0	0	0	0	1	1.06582711	-7.26305189	220	1	1.11	0.95	93.4514	-0.3099	0.0000	0.0000;
	14	1	0	0	0	-50	1	1.02790736	-4.56357895	400	1	1.05	0.95	92.4628	-0.4494	0.0000	0.0000;
	15	1	0	0	0	0	1	1.0486416	-7.12532387	400	1	1.05	0.95	93.0327	-1.5740	0.0000	0.0000;
	16	1	0	0	0	0	1	1.0486416	-7.12532387	400	1	1.05	0.95	93.0325	-1.5754	2354.0866	0.0000;
	17	1	0	0	0	0	1	1.07555999	-11.1095484	220	1	1.11	0.95	95.1052	-0.0880	0.0000	0.0000;
	18	1	0	0	0	0	1	1.07550893	-11.1095323	220	1	1.11	0.95	95.1042	-0.0861	0.0000	0.0000;
	19	1	0	0	0	0	1	1.07658544	0.460482946	220	1	1.11	0.95	90.4586	0.0218	0.0000	0.0000;
	20	1	0	0	0	0	1	1.07659181	0.455560361	220	1	1.11	0.95	90.4595	0.0218	0.0000	0.0000;
	21	1	0	0	0	0	1	1.06675638	-7.15677738	220	1	1.11	0.95	93.3511	-0.1824	0.0000	0.0000;
	22	1	0	0	0	0	1	1.06675638	-7.15677738	220	1	1.11	0.95	93.3511	-0.1824	0.0000	0.0000;
	23	1	0	0	0	0	1	1.06549538	-7.32455304	220	1	1.11	0.95	93.4699	-0.3584	0.0000	0.0000;
	24	1	0	0	0	0	1	1.0819483	0.773741667	220	1	1.11	0.95	90.3797	-0.0309	0.0000	0.0000;
	25	1	0	0	0	-50	1	1.01828689	-7.399744	400	1	1.05	0.95	93.6600	-0.1245	0.0000	0.0000;
	26	2	48.178	65.087	0	0	1	1.08527	3.69493151	220	1	1.11	0.95	89.3018	0.0000	0.0000	0.0000;
	27	2	28.145	35.087	0	0	1	1.08827	2.16909452	220	1	1.11	0.95	89.8497	-0.0653	0.0000	0.0000;
	28	3	0	0	0	0	1	1.027	1.77808	400	1	1.05	0.95	90.2156	-0.0851	0.0000	0.0000;
	29	2	44.698	72	0	0	1	1.027	1.78685257	400	1	1.05	0.95	90.2126	-0.0850	0.0000	0.0000;
	30	1	0	0	0	0	1	1.06331178	-7.31854255	220	1	1.11	0.95	93.5523	-0.2272	0.0000	0.0000;
	31	1	0	0	0	0	1	1.02780967	0.785896085	400	1	1.05	0.95	90.3745	-0.1567	0.0000	0.0000;
	32	1	0	0	0	0	1	1.06397002	-7.41367328	220	1	1.11	0.95	93.5297	-0.2720	0.0000	0.0000;
	33	1	0	0	0	0	1	1.06941487	-1.39440494	220	1	1.11	0.95	91.1525	0.0342	0.0000	0.0000;
	34	1	0	0	0	0	1	1.11337102	-4.0048301	220	2	1.11	0.95	90.8522	-4.4397	11730.0166	0.0000;
	35	1	0	0	0	0	1	1.07503293	-4.7044732	220	2	1.11	0.95	92.2726	-1.4203	0.0000	0.0000;
	36	1	0	0	0	0	1	1.09199118	-4.26046095	220	2	1.11	0.95	91.8665	-1.7375	0.0000	0.0000;
	37	1	0	0	0	0	1	1.09194049	-4.26191687	220	2	1.11	0.95	91.8676	-1.7350	0.0000	0.0000;
	38	1	0	0	0	0	1	1.10274585	-4.24806694	220	2	1.11	0.95	91.1584	-3.1562	0.0000	0.0000;
	39	1	0	0	0	0	1	1.09852584	-4.27313787	220	2	1.11	0.95	92.1847	-1.1120	0.0000	0.0000;
	40	1	0	0	0	0	1	1.09844881	-4.27604641	220	2	1.11	0.95	92.1859	-1.1109	0.0000	0.0000;
	41	1	0	0	0	0	1	1.03152582	-4.18570875	400	2	1.05	0.95	92.1440	-1.0852	0.0000	0.0000;
	42	2	13	0	0	0	1	1.09086	-4.14645621	220	2	1.11	0.95	91.7425	-1.1989	0.0000	0.0000;
	43	2	13	0	0	0	1	1.09091	-4.13759901	220	2	1.11	0.95	91.7398	-1.2022	0.0000	0.0000;
	44	2	25	0	0	0	1	1.04817	-4.13035366	400	2	1.05	0.95	91.9966	-1.1649	0.0000	0.0000;
	45	1	0	0	0	0	1	1.04821544	-4.13032045	400	2	1.05	0.95	91.9947	-1.1665	0.0000	0.0000;
	46	1	0	0	0	0	1	1.09820664	-4.56814669	220	2	1.11	0.95	92.3785	-1.1117	0.0000	0.0000;
	47	1	0	0	0	0	1	1.03095513	-6.8120102	400	2	1.05	0.95	92.8916	-0.8887	0.0000	0.0000;
	48	1	0	0	0	0	1	1.03095876	-6.81628407	400	2	1.05	0.95	92.8935	-0.8885	0.0000	0.0000;
	49	1	0	0	0	0	1	1.04630955	-4.03438069	400	2	1.05	0.95	91.7028	-1.5086	0.0000	0.0000;
	50	1	0	0	0	0	1	1.10252338	-3.67731005	220	2	1.11	0.95	90.7898	-3.2463	0.0000	0.0000;
	51	1	0	0	0	0	1	1.1024975	-3.67475854	220	2	1.11	0.95	90.7899	-3.2444	0.0000	0.0000;
	52	1	0	0	0	0	1	1.04343736	-4.55973984	400	2	1.05	0.95	92.1922	-1.1842	0.0000	0.0000;
	53	1	0	0	0	0	1	1.04342505	-4.55873447	400	2	1.05	0.95	92.1922	-1.1841	0.0000	0.0000;
	54	1	0	0	0	0	1	1.09127605	-3.94823432	220	2	1.11	0.95	91.8352	-1.3695	0.0000	0.0000;
	55	2	13	0	0	0	1	1.09126	-3.94156624	220	2	1.11	0.95	91.8311	-1.3710	0.0000	0.0000;
	56	2	13	0	0	0	1	1.03933	-4.0945201	400	2	1.05	0.95	92.0676	-1.1044	0.0000	0.0000;
	57	2	13	0	0	0	1	1.03932	-4.09814309	400	2	1.05	0.95	92.0690	-1.1042	0.0000	0.0000;
	58	2	67.882	25.273	0	0	1	1.09864	-4.35714556	220	2	1.11	0.95	91.6559	-1.9664	0.0000	0.0000;
	59	1	0	0	0	0	1	1.09867512	-4.35448449	220	2	1.11	0.95	91.6539	-1.9726	0.0000	0.0000;
	60	1	0	0	0	0	1	1.0949415	-4.65319561	220	2	1.11	0.95	92.3656	-1.1302	0.0000	0.0000;
	61	1	0	0	0	0	1	1.09347336	-4.56262314	220	2	1.11	0.95	92.0242	-1.3236	0.0000	0.0000;
	62	1	0	0	0	0	1	1.09346575	-4.56275028	220	2	1.11	0.95	92.0235	-1.3255	0.0000	0.0000;
	63	1	0	0	0	0	1	1.02993276	-4.94772381	400	2	1.05	0.95	92.3231	-0.9194	0.0000	0.0000;
	64	1	0	0	0	0	1	1.02995623	-4.95589083	400	2	1.05	0.95	92.3259	-0.9197	0.0000	0.0000;
	65	1	0	224.802	0	0	1	1.04163612	-4.93030372	750	2	1.05	0.9	92.3232	-0.9027	0.0000	0.0000;
	66	1	0	0	0	0	1	1.09892044	-4.49950838	220	2	1.11	0.95	91.7378	-2.5436	0.0000	0.0000;
	67	1	0	0	0	0	1	1.09958649	-4.40922754	220	2	1.11	0.95	91.6777	-2.5875	0.0000	0.0000;
	68	1	0	0	0	0	1	1.09890735	-3.16936702	220	2	1.11	0.95	90.6058	-3.0297	0.0000	0.0000;
	69	1	0	0	0	0	1	1.08112342	-1.61388852	220	3	1.11	0.95	91.1768	-0.2209	0.0000	0.0000;
	70	1	0	0	0	0	1	1.09038663	-4.8163345	220	3	1.11	0.95	92.2721	-0.9226	0.0000	0.0000;
	71	1	0	0	0	0	1	1.09038706	-4.81499091	220	3	1.11	0.95	92.2715	-0.9237	0.0000	0.0000;
	72	1	0	0	0	0	1	1.06614425	-4.60926694	220	3	1.11	0.95	92.3851	0.0114	0.0000	0.0000;
	73	1	0	0	0	0	1	1.06614939	-4.59681252	220	3	1.11	0.95	92.3817	0.0111	0.0000	0.0000;
	74	1	0	0	0	0	1	1.07233144	-3.51079428	220	3	1.11	0.95	91.7651	-0.0664	0.0000	0.0000;
	75	1	0	0	0	0	1	1.0723152	-3.51220403	220	3	1.11	0.95	91.7660	-0.0664	0.0000	0.0000;
	76	1	0	0	0	0	1	1.06369563	-8.40473457	220	3	1.11	0.95	94.1814	0.0102	0.0000	0.0000;
	77	1	0	0	0	0	1	1.06368404	-8.4081675	220	3	1.11	0.95	94.1832	0.0103	0.0000	0.0000;
	78	2	27	70	0	0	1	1.06723	-3.74887153	220	3	1.11	0.95	92.0186	0.0000	0.0000	0.0000;
	79	2	9	21	0	0	1	1.07077	-4.38014915	220	3	1.11	0.95	92.3156	-0.0433	0.0000	0.0000;
	80	1	4.602	0.91	0	0	1	1.06554306	-4.4510725	220	3	1.11	0.95	92.4187	0.0157	0.0000	0.0000;
	81	1	0	0	0	0	1	1.06554517	-4.4513254	220	3	1.11	0.95	92.4191	0.0155	0.0000	0.0000;
	82	2	18	57	0	0	1	1.0186	-0.685359354	400	3	1.05	0.95	90.7825	-0.1757	0.0000	0.0000;
	83	1	0	0	0	0	1	1.08753157	-2.60999262	220	3	1.11	0.95	91.1798	-0.3557	0.0000	0.0000;
	84	1	0	0	0	0	1	1.06972912	-4.25327411	220	3	1.11	0.95	92.1077	-0.0084	0.0000	0.0000;
	85	1	0	0	0	0	1	1.06971705	-4.25482947	220	3	1.11	0.95	92.1087	-0.0085	0.0000	0.0000;
	86	1	32.969	-8.4	0	0	1	1.08164462	-1.76373494	220	3	1.11	0.95	91.2109	-0.2332	0.0000	0.0000;
	87	1	0	0	0	0	1	1.08163936	-1.76837538	220	3	1.11	0.95	91.2124	-0.2332	0.0000	0.0000;
	88	1	0	0	0	0	1	1.06483077	-3.78081874	220	3	1.11	0.95	91.9702	0.0584	0.0000	0.0000;
	89	1	0	0	0	0	1	1.06480483	-3.78125454	220	3	1.11	0.95	91.9702	0.0584	0.0000	0.0000;
	90	1	0	0	0	0	1	1.08164941	-1.38188299	220	3	1.11	0.95	91.0457	-0.2127	0.0000	0.0000;
	91	1	0	0	0	0	1	1.0816754	-1.38554992	220	3	1.11	0.95	91.0462	-0.2136	0.0000	0.0000;
	92	1	0	0	0	0	1	1.03037595	-0.00335151878	400	3	1.05	0.95	90.7875	-0.2047	0.0000	0.0000;
	93	1	0	0	0	0	1	1.03036584	-0.00438757397	400	3	1.05	0.95	90.7877	-0.2046	0.0000	0.0000;
	94	1	0	0	0	0	1	1.06749807	-3.87547463	220	3	1.11	0.95	91.9405	0.0092	0.0000	0.0000;
	95	1	0	0	0	0	1	1.06751511	-3.88061232	220	3	1.11	0.95	91.9419	0.0092	0.0000	0.0000;
	96	1	0	0	0	0	1	1.07835969	-3.05647504	220	3	1.11	0.95	91.4340	-0.1495	0.0000	0.0000;
	97	1	0	0	0	0	1	1.07841072	-3.05420542	220	3	1.11	0.95	91.4330	-0.1504	0.0000	0.0000;
	98	2	9.938	2.19	0	0	1	1.07416	-4.02733948	220	3	1.11	0.95	92.1552	-0.1393	0.0000	0.0000;
	99	1	16.652	3.293	0	0	1	1.07417924	-4.0248014	220	3	1.11	0.95	92.1544	-0.1400	0.0000	0.0000;
	100	1	0	0	0	0	1	1.09036776	-4.81482764	220	3	1.11	0.95	92.2715	-0.9232	0.0000	0.0000;
	101	1	0	0	0	0	1	1.09036738	-4.81617166	220	3	1.11	0.95	92.2721	-0.9221	0.0000	0.0000;
	102	1	0	0	0	0	1	1.06321421	-7.80564298	220	3	1.11	0.95	93.9537	0.0324	0.0000	0.0000;
	103	1	0	0	0	0	1	1.0632061	-7.79484489	220	3	1.11	0.95	93.9502	0.0325	0.0000	0.0000;
	104	2	14	40	0	0	1	1.06927	-4.24939624	220	3	1.11	0.95	92.1322	0.0000	0.0000	0.0000;
	105	1	0	0	0	0	1	1.06916695	-4.26916609	220	3	1.11	0.95	92.1397	0.0016	0.0000	0.0000;
	106	2	7	18	0	0	1	1.06843	-3.46998313	220	3	1.11	0.95	91.7962	0.0000	0.0000	0.0000;
	107	1	0	0	0	0	1	1.06839645	-3.46975123	220	3	1.11	0.95	91.7964	-0.0002	0.0000	0.0000;
	108	1	27.63	5.872	0	0	1	1.07729383	-3.54270218	220	3	1.11	0.95	91.9503	-0.2359	0.0000	0.0000;
	109	1	17.522	3.337	0	0	1	1.0773307	-3.55039056	220	3	1.11	0.95	91.9525	-0.2371	0.0000	0.0000;
	110	1	0	0	0	0	1	1.0674958	-4.87264046	220	3	1.11	0.95	92.6581	-0.1116	0.0000	0.0000;
	111	1	0	0	0	0	1	1.06447228	-4.29077105	220	3	1.11	0.95	92.2667	0.0927	0.0000	0.0000;
	112	1	0	0	0	0	1	1.06448576	-4.29157365	220	3	1.11	0.95	92.2672	0.0922	0.0000	0.0000;
	113	1	0	0	0	0	1	1.06547903	-4.46800593	220	3	1.11	0.95	92.4521	0.0044	0.0000	0.0000;
	114	1	0	0	0	0	1	1.06549004	-4.46271409	220	3	1.11	0.95	92.4500	0.0042	0.0000	0.0000;
	115	1	0	0	0	0	1	1.0184883	-2.23921722	400	3	1.05	0.95	91.4080	-0.2491	0.0000	0.0000;
	116	1	0	0	0	0	1	1.07085693	-4.04793513	220	3	1.11	0.95	92.1785	-0.0890	0.0000	0.0000;
	117	2	8	15	0	0	1	1.07082	-4.03804576	220	3	1.11	0.95	92.1757	-0.0883	0.0000	0.0000;
	118	1	0	0	0	0	1	1.0706243	-4.66035018	220	3	1.11	0.95	92.4705	-0.1887	0.0000	0.0000;
	119	1	0	0	0	0	1	1.07064136	-4.65912405	220	3	1.11	0.95	92.4696	-0.1896	0.0000	0.0000;
	120	1	0	0	0	0	1	1.03794832	-4.26480282	400	3	1.05	0.95	92.1277	-0.9603	0.0000	0.0000;
	121	1	0	0	0	0	1	1.03798002	-4.26067844	400	3	1.05	0.95	92.1260	-0.9605	0.0000	0.0000;
	122	1	0	0	0	0	1	1.02616267	-2.06296499	400	3	1.05	0.95	91.3301	-0.3804	0.0000	0.0000;
	123	1	0	0	0	0	1	1.02622225	-2.06000597	400	3	1.05	0.95	91.3292	-0.3813	0.0000	0.0000;
	124	1	0	0	0	0	1	1.06701862	-4.94908254	220	3	1.11	0.95	92.7212	-0.1134	0.0000	0.0000;
	125	1	2.929	0.867	0	0	1	1.07440786	-3.23230073	220	3	1.11	0.95	91.5511	-0.0543	0.0000	0.0000;
	126	2	19.898	27.707	0	0	1	1.07421	-3.22644783	220	3	1.11	0.95	91.5514	-0.0514	0.0000	0.0000;
	127	2	12.2	25.8	0	0	1	1.01239	-1.86991939	400	3	1.05	0.95	91.2979	-0.1135	0.0000	0.0000;
	128	1	0	0	0	0	1	1.01231984	-1.87452217	400	3	1.05	0.95	91.2999	-0.1129	0.0000	0.0000;
	129	1	0	0	0	0	1	1.08145257	-1.86060552	220	3	1.11	0.95	91.2543	-0.2341	0.0000	0.0000;
	130	1	0	0	0	0	1	1.08140364	-1.86142075	220	3	1.11	0.95	91.2542	-0.2333	0.0000	0.0000;
	131	1	0	0	0	0	1	1.08074107	-1.73892047	220	3	1.11	0.95	91.2028	-0.2119	0.0000	0.0000;
	132	2	137	9	0	0	1	1.06355	-8.84484549	220	3	1.11	0.95	94.3690	0.0000	0.0000	0.0000;
	133	2	137	6	0	0	1	1.06355	-8.8497341	220	3	1.11	0.95	94.3708	0.0000	0.0000	0.0000;
	134	1	0.515	1.973	0	0	1	1.06639753	-2.02129257	220	4	1.11	0.95	91.3665	0.0003	0.0000	0.0000;
	135	2	15.242	14.277	0	0	1	1.06642	-2.01839219	220	4	1.11	0.95	91.3654	-0.0000	0.0000	0.0000;
	136	1	0	0	0	0	1	1.08990656	-2.99331705	220	4	1.11	0.95	90.9609	-0.3853	0.0000	0.0000;
	137	1	0	0	0	0	1	1.09015905	-2.35558014	220	4	1.11	0.95	90.6905	-0.2757	0.0000	0.0000;
	138	1	0	0	0	0	1	1.0118182	-2.25158264	400	4	1.05	0.95	91.1851	-0.2239	0.0000	0.0000;
	139	1	0	0	0	0	1	1.01184002	-2.25430939	400	4	1.05	0.95	91.1863	-0.2241	0.0000	0.0000;
	140	1	0	0	0	0	1	1.07063522	-7.20388952	220	4	1.11	0.95	93.9426	-0.2038	0.0000	0.0000;
	141	1	0	0	0	0	1	1.08568921	-6.51620233	220	4	1.11	0.95	94.2776	0.0247	0.0000	0.0000;
	142	1	0	0	0	0	1	1.08568921	-6.51620233	220	4	1.11	0.95	94.2776	0.0247	0.0000	0.0000;
	143	1	0	0	0	0	1	1.08872189	-6.311208	220	4	1.11	0.95	93.6117	-0.4728	0.0000	0.0000;
	144	1	0	0	0	0	1	1.08548441	-3.50737692	220	4	1.11	0.95	91.1515	-0.2253	0.0000	0.0000;
	145	1	0	0	0	0	1	1.08548441	-3.50737692	220	4	1.11	0.95	91.1515	-0.2253	0.0000	0.0000;
	146	1	7.636	13.257	0	0	1	1.05773288	-3.70450182	220	4	1.11	0.95	92.0820	0.0139	0.0000	0.0000;
	147	1	0	0	0	0	1	1.05778714	-3.70244829	220	4	1.11	0.95	92.0799	0.0134	0.0000	0.0000;
	148	2	10.87	14.867	0	0	1	1.09091	-5.67519791	220	4	1.11	0.95	93.8293	-0.0074	0.0000	0.0000;
	149	1	0	0	0	0	1	1.09086374	-5.68623618	220	4	1.11	0.95	93.8358	-0.0086	0.0000	0.0000;
	150	2	10.989	15	0	0	1	1.01688	-8.43641847	400	4	1.05	0.95	94.4951	-0.0000	0.0000	0.0000;
	151	2	20.672	21.479	0	0	1	1.01688	-8.43381024	400	4	1.05	0.95	94.4943	-0.0004	0.0000	0.0000;
	152	1	0	0	0	0	1	1.07294356	-6.87868542	220	4	1.11	0.95	93.9336	-0.2218	0.0000	0.0000;
	153	1	0	0	0	0	1	1.08919516	-4.49901495	220	4	1.11	0.95	92.2945	-0.9851	0.0000	0.0000;
	154	1	0	0	0	0	1	1.08921067	-4.50164927	220	4	1.11	0.95	92.2953	-0.9815	0.0000	0.0000;
	155	2	0	0	0	0	1	1.08864	-0.936626688	220	4	1.11	0.95	90.1696	-0.0449	0.0000	0.0000;
	156	2	13.87	33	0	0	1	1.08864	-0.930596131	220	4	1.11	0.95	90.1689	-0.0454	0.0000	0.0000;
	157	1	0	0	0	0	1	0.998506253	0.00541240368	400	4	1.05	0.95	90.2541	-0.0039	0.0000	0.0000;
	158	2	9.989	25	0	0	1	0.99847	0.0101624831	400	4	1.05	0.95	90.2525	-0.0033	0.0000	0.0000;
	159	1	0	0	0	0	1	1.09023277	-6.52525696	220	4	1.11	0.95	94.2231	-0.0428	0.0000	0.0000;
	160	1	0	0	0	0	1	1.09023277	-6.52525696	220	4	1.11	0.95	94.2231	-0.0428	0.0000	0.0000;
	161	1	0	0	0	0	1	1.01649044	-2.91234208	400	4	1.05	0.95	91.4175	-0.2802	0.0000	0.0000;
	162	1	0	0	0	0	1	1.01674539	-2.381073	400	4	1.05	0.95	91.2251	-0.2678	0.0000	0.0000;
	163	1	0	0	0	0	1	1.01674215	-2.38069716	400	4	1.05	0.95	91.2250	-0.2678	0.0000	0.0000;
	164	2	11.664	11	0	0	1	1.05768	-3.78224497	220	4	1.11	0.95	92.1080	-0.0000	0.0000	0.0000;
	165	2	11.564	10.667	0	0	1	1.05768	-3.79703191	220	4	1.11	0.95	92.1152	-0.0002	0.0000	0.0000;
	166	1	0	0	0	0	1	1.05768	-3.79703191	220	4	1.11	0.95	92.1152	-0.0002	0.0000	0.0000;
	167	1	0	0	0	0	1	1.07587437	-11.5145786	220	4	1.11	0.95	96.2459	-0.3679	0.0000	0.0000;
	168	1	0	0	0	0	1	1.0849855	-6.57666035	220	4	1.11	0.95	94.3017	0.0429	0.0000	0.0000;
	169	1	0	0	0	0	1	1.07996839	-7.90549116	220	4	1.11	0.95	94.3401	-0.3672	0.0000	0.0000;
	170	1	0	0	0	0	1	1.07997157	-7.91162627	220	4	1.11	0.95	94.3422	-0.3673	0.0000	0.0000;
	171	1	0	0	0	0	1	1.00370887	-8.25388769	400	4	1.05	0.95	94.4134	-0.2652	0.0000	0.0000;
	172	1	0	0	0	0	1	1.00370887	-8.25388769	400	4	1.05	0.95	94.4134	-0.2652	0.0000	0.0000;
	173	1	0	0	0	0	1	1.0753492	-5.0304991	220	4	1.11	0.95	92.7843	-0.1592	0.0000	0.0000;
	174	1	0	0	0	0	1	1.07535896	-5.02817235	220	4	1.11	0.95	92.7836	-0.1585	0.0000	0.0000;
	175	1	0	0	0	0	1	1.05801709	-5.91528009	220	4	1.11	0.95	92.8329	-0.0759	0.0000	0.0000;
	176	1	0	0	0	0	1	1.08935672	-2.93419573	220	4	1.11	0.95	90.9932	-0.3999	0.0000	0.0000;
	177	1	0	0	0	0	1	1.08936525	-2.93298798	220	4	1.11	0.95	90.9935	-0.4011	0.0000	0.0000;
	178	1	0	0	0	0	1	1.09012245	-3.13738214	220	4	1.11	0.95	91.1245	-0.7002	1510.5743	0.0000;
	179	1	0	0	0	0	1	1.09012245	-3.13738214	220	4	1.11	0.95	91.1245	-0.7002	0.0000	0.0000;
	180	2	3.13	1.5	0	0	1	1.09138	-3.55911622	220	4	1.11	0.95	91.8736	-1.4635	3217.2702	0.0000;
	181	1	0	0	0	0	1	1.07619475	-5.33374309	220	4	1.11	0.95	92.8581	-0.3246	0.0000	0.0000;
	182	1	0	0	0	0	1	1.05120975	-10.7162282	220	5	1.11	0.95	95.7641	0.0476	0.0000	0.0000;
	183	1	0	0	0	0	1	1.06513507	-14.9443096	220	5	1.11	0.95	96.9396	-0.0429	0.0000	0.0000;
	184	1	0	0	0	0	1	1.0020584	-14.5285031	400	5	1.05	0.95	96.7166	0.0058	0.0000	0.0000;
	185	1	0	0	0	0	1	1.00209725	-14.5195846	400	5	1.05	0.95	96.7128	0.0058	0.0000	0.0000;
	186	1	0	0	0	0	1	0.994503491	-17.5609259	400	5	1.05	0.95	97.9087	-0.0415	0.0000	0.0000;
	187	1	0	0	0	0	1	0.994520574	-17.5657302	400	5	1.05	0.95	97.9110	-0.0420	0.0000	0.0000;
	188	1	0	0	0	0	1	1.05845604	-16.3097994	220	5	1.11	0.95	98.0998	-0.0701	0.0000	0.0000;
	189	1	0	0	0	0	1	1.05848448	-16.3111605	220	5	1.11	0.95	98.1000	-0.0706	0.0000	0.0000;
	190	1	0	0	0	0	1	1.06210385	-11.4413587	220	5	1.11	0.95	96.6631	-0.0479	0.0000	0.0000;
	191	1	0	0	0	0	1	1.0620682	-11.4452583	220	5	1.11	0.95	96.6619	-0.0478	0.0000	0.0000;
	192	1	0	0	0	0	1	0.993069896	-13.243461	400	5	1.05	0.95	96.1553	0.0868	0.0000	0.0000;
	193	1	0	0	0	0	1	1.05169995	-10.2491104	220	5	1.11	0.95	95.6728	0.0611	0.0000	0.0000;
	194	1	0	0	0	0	1	1.05170572	-10.2445464	220	5	1.11	0.95	95.6729	0.0610	0.0000	0.0000;
	195	1	0	0	0	0	1	1.00540475	-17.3155014	400	5	1.05	0.95	98.0356	-0.1232	0.0000	0.0000;
	196	1	0	0	0	0	1	1.00541179	-17.314774	400	5	1.05	0.95	98.0359	-0.1231	0.0000	0.0000;
	197	1	0	0	0	0	1	1.04881276	-14.2291	220	5	1.11	0.95	97.5431	-0.0369	0.0000	0.0000;
	198	1	0	0	0	0	1	1.04883134	-14.2287728	220	5	1.11	0.95	97.5417	-0.0368	0.0000	0.0000;
	199	1	0	0	0	-117	1	0.988357429	-16.5263085	400	5	1.05	0.95	97.4200	0.1085	0.0000	0.0000;
	200	1	0	0	0	0	1	0.988424798	-16.5181962	400	5	1.05	0.95	97.4168	0.1079	0.0000	0.0000;
	201	1	0	0	0	0	1	1.05070148	-11.0928769	220	5	1.11	0.95	96.6269	0.0765	0.0000	0.0000;
	202	1	0	0	0	0	1	1.05066932	-11.088851	220	5	1.11	0.95	96.6257	0.0767	0.0000	0.0000;
	203	1	0	0	0	0	1	1.04372668	-9.5386794	220	5	1.11	0.95	95.7763	0.1786	0.0000	0.0000;
	204	1	0	0	0	0	1	1.04372007	-9.54720006	220	5	1.11	0.95	95.7803	0.1786	0.0000	0.0000;
	205	2	400	60	0	0	1	0.98664	-18.6038088	400	5	1.05	0.95	98.1753	-0.0000	0.0000	0.0000;
	206	1	0	0	0	0	1	0.986684585	-18.599711	400	5	1.05	0.95	98.1740	-0.0004	0.0000	0.0000;
	207	1	0	0	0	0	1	1.06679456	-15.4608528	220	5	1.11	0.95	97.4145	-0.2154	0.0000	0.0000;
	208	1	0	0	0	0	1	1.06678531	-15.4646173	220	5	1.11	0.95	97.4142	-0.2148	0.0000	0.0000;
	209	1	8.114	2	0	0	1	1.07230672	-9.72606341	110	1	1.12	0.95	95.2602	-0.7115	0.0000	0.0000;
	210	1	2.705	0.5	0	0	1	1.05612392	-15.5255739	110	1	1.12	0.95	98.3805	-0.5282	0.0000	0.0000;
	211	1	2.705	2	0	0	1	1.06455735	-8.93675932	110	1	1.12	0.95	93.3974	-0.2476	0.0000	0.0000;
	212	1	4.688	4.6	0	0	1	1.04353521	-10.4424516	110	1	1.12	0.95	96.0087	0.4706	0.0000	0.0000;
	213	1	1.623	0.4	0	0	1	1.03711903	1.57189147	110	1	1.12	0.95	90.1198	0.0072	0.0000	0.0000;
	214	1	1.172	0.3	0	0	1	1.03671779	0.803120198	110	1	1.12	0.95	89.9175	0.3503	0.0000	0.0000;
	215	2	6	8.8	0	0	1	1.09091	-9.79111291	110	1	1.12	0.95	93.5881	-0.9775	0.0000	0.0000;
	216	1	4.959	0.5	0	0	1	1.09129807	-9.65444074	110	1	1.12	0.95	93.4725	-1.0851	0.0000	0.0000;
	217	1	4.057	1	0	0	1	1.09110055	-9.69890901	110	1	1.12	0.95	93.5110	-1.0565	0.0000	0.0000;
	218	1	6.762	1.5	0	0	1	1.09000016	-9.89350949	110	1	1.12	0.95	93.6734	-0.9734	0.0000	0.0000;
	219	1	5.139	2.8	0	0	1	1.05121104	-9.864699	110	1	1.12	0.95	94.8567	0.1396	0.0000	0.0000;
	220	1	5.41	1.5	0	0	1	1.05626235	-10.0273379	110	1	1.12	0.95	94.6576	0.0251	0.0000	0.0000;
	221	2	0	0	0	0	1	1.0868	-5.119124	110	1	1.12	0.95	91.7879	-0.2327	0.0000	0.0000;
	222	2	4.237	1.7	0	0	1	1.0748	-2.86395079	110	1	1.12	0.95	91.9673	0.0000	0.0000	0.0000;
	223	1	6.311	1.4	0	0	1	1.05949215	-9.44309542	110	1	1.12	0.95	93.9255	-0.1823	0.0000	0.0000;
	224	1	0.721	0.1	0	0	1	1.03131313	0.300524479	110	1	1.12	0.95	90.9851	0.0074	0.0000	0.0000;
	225	1	2.074	0.4	0	0	1	1.05466558	-11.3324338	110	1	1.12	0.95	95.1407	-0.0081	0.0000	0.0000;
	226	1	1.803	0	0	0	1	1.06608882	-13.2544355	110	1	1.12	0.95	96.5717	-0.3691	0.0000	0.0000;
	227	1	7.664	1.5	0	0	1	1.08369647	-9.80252411	110	1	1.12	0.95	94.3854	-1.1315	0.0000	0.0000;
	228	1	2.524	1	0	0	1	1.05706507	-9.5797506	110	1	1.12	0.95	94.0399	-0.1275	0.0000	0.0000;
	229	1	3.246	1	0	0	1	1.05709196	-9.5749482	110	1	1.12	0.95	94.0383	-0.1278	0.0000	0.0000;
	230	1	1.533	0.78	0	0	1	1.0774067	-1.77635584	110	1	1.12	0.95	91.2077	0.0815	0.0000	0.0000;
	231	1	1.533	0.78	0	0	1	1.07274419	-2.62059147	110	1	1.12	0.95	91.7079	0.0697	0.0000	0.0000;
	232	1	3.606	1	0	0	1	1.05578694	-9.48825747	110	1	1.12	0.95	94.1655	-0.0499	0.0000	0.0000;
	233	1	3.246	1	0	0	1	1.03677716	0.828944069	110	1	1.12	0.95	89.8944	0.3547	0.0000	0.0000;
	234	1	8.114	0.5	0	0	1	1.05999247	-5.07576576	110	1	1.12	0.95	92.8043	-0.7724	0.0000	0.0000;
	235	1	22.54	23	0	0	1	1.01958816	1.15498094	110	1	1.12	0.95	90.0587	0.5944	0.0000	0.0000;
	236	1	2.975	0.5	0	0	1	1.05051883	-12.4501823	110	1	1.12	0.95	96.7137	-0.0893	0.0000	0.0000;
	237	1	4.057	1.78	0	0	1	1.08056967	-1.69300528	110	1	1.12	0.95	90.7875	0.0600	0.0000	0.0000;
	238	1	2.975	0.6	0	0	1	1.05059852	-12.4951009	110	1	1.12	0.95	96.7725	-0.0936	0.0000	0.0000;
	239	1	2.254	1	0	0	1	1.07128241	-10.8578913	110	1	1.12	0.95	95.3240	-0.3199	0.0000	0.0000;
	240	2	0	0	0	0	1	1.05704	-10.5454456	110	1	1.12	0.95	95.2580	0.0000	0.0000	0.0000;
	241	1	4.959	0.8	0	0	1	1.04437118	-14.1778596	110	1	1.12	0.95	97.4442	0.0319	0.0000	0.0000;
	242	1	2.074	0.83	0	0	1	1.07654275	-2.23873502	110	1	1.12	0.95	91.2599	0.0271	0.0000	0.0000;
	243	1	3.336	0.4	0	0	1	1.08976548	-1.46393665	110	1	1.12	0.95	90.2912	-0.1998	0.0000	0.0000;
	244	1	3.336	0.4	0	0	1	1.08977136	-1.45211349	110	1	1.12	0.95	90.2904	-0.1986	0.0000	0.0000;
	245	1	1.623	1.5	0	0	1	1.08439692	-9.1894763	110	1	1.12	0.95	94.1273	0.0272	0.0000	0.0000;
	246	1	0	0	0	0	1	1.04115189	2.75841964	110	1	1.12	0.95	89.5292	0.0245	0.0000	0.0000;
	247	2	0	5	0	0	1	1.02878	6.34850988	22	1	1.12	0.95	89.6459	0.0018	0.0000	0.0000;
	248	1	3.606	1	0	0	1	1.06374567	-14.0152823	110	1	1.12	0.95	97.2708	-0.4735	0.0000	0.0000;
	249	1	1.352	0	0	0	1	1.06003116	-14.5524826	110	1	1.12	0.95	96.6748	-0.2285	0.0000	0.0000;
	250	1	1.352	0	0	0	1	1.06721072	-13.4754385	110	1	1.12	0.95	96.5880	-0.4438	0.0000	0.0000;
	251	1	1.352	0	0	0	1	1.05356487	-16.2754982	110	1	1.12	0.95	99.9635	-0.9190	0.0000	0.0000;
	252	1	1.984	0.3	0	0	1	1.06060274	-9.67068687	110	1	1.12	0.95	93.9211	-0.1343	0.0000	0.0000;
	253	1	9.016	5	0	0	1	1.07514435	-6.549453	110	1	1.12	0.95	92.5923	-0.1218	0.0000	0.0000;
	254	1	8.565	4	0	0	1	1.05527284	-9.54929869	110	1	1.12	0.95	94.1885	-0.0400	0.0000	0.0000;
	255	1	5.41	1	0	0	1	1.04704453	-16.2702653	110	1	1.12	0.95	98.3593	-0.1944	0.0000	0.0000;
	256	1	7.213	1	0	0	1	1.07094344	-12.9566837	110	1	1.12	0.95	96.1385	-0.5324	0.0000	0.0000;
	257	1	2.254	0	0	0	1	1.07042331	-13.0968408	110	1	1.12	0.95	96.1929	-0.5082	0.0000	0.0000;
	258	1	2.029	0.5	0	0	1	1.03790998	1.94219218	110	1	1.12	0.95	90.0240	0.0118	0.0000	0.0000;
	259	1	2.029	0.5	0	0	1	1.03790057	1.93868519	110	1	1.12	0.95	90.0251	0.0118	0.0000	0.0000;
	260	1	4.418	1.78	0	0	1	1.07255157	-2.21826954	110	1	1.12	0.95	91.6881	0.1817	0.0000	0.0000;
	261	1	2.254	0	0	0	1	1.05398995	-16.4913889	110	1	1.12	0.95	100.1731	-1.0187	0.0000	0.0000;
	262	1	4.869	2.1	0	0	1	1.06405113	-9.41091002	110	1	1.12	0.95	93.8790	-0.2318	0.0000	0.0000;
	263	1	0	0	0	0	1	1.06594944	-8.58340328	110	1	1.12	0.95	93.4920	-0.3554	0.0000	0.0000;
	264	1	0.721	0.8	0	0	1	1.0481486	-13.1445515	110	1	1.12	0.95	97.0585	-0.0204	0.0000	0.0000;
	265	1	19.835	20	0	0	1	1.03882712	2.36215938	110	1	1.12	0.95	89.6862	0.0503	0.0000	0.0000;
	266	1	31.555	33	0	0	1	1.02703496	0.703062459	110	1	1.12	0.95	89.9849	0.5656	0.0000	0.0000;
	267	1	24.344	0.9	0	0	1	1.04343414	2.65952682	110	1	1.12	0.95	89.5755	-0.0782	0.0000	0.0000;
	268	1	0.902	0	0	0	1	1.05718438	-9.33123644	110	1	1.12	0.95	94.0508	-0.0768	0.0000	0.0000;
	269	1	3.967	0.1	0	0	1	1.05706032	-9.10335985	110	1	1.12	0.95	94.1106	-0.2198	0.0000	0.0000;
	270	1	3.336	1.4	0	0	1	1.06073809	-9.63362592	110	1	1.12	0.95	93.8432	-0.0761	0.0000	0.0000;
	271	1	4.508	1	0	0	1	1.08410935	-10.0229921	110	1	1.12	0.95	94.4927	-1.1138	0.0000	0.0000;
	272	1	4.058	0.5	0	0	1	1.0529034	-16.0585887	110	1	1.12	0.95	99.7690	-0.8184	0.0000	0.0000;
	273	1	5.229	1.45	0	0	1	1.05905178	-9.40655366	110	1	1.12	0.95	94.1291	-0.0662	0.0000	0.0000;
	274	1	0.36	0.1	0	0	1	1.05220231	-9.91342283	110	1	1.12	0.95	94.9418	0.1108	0.0000	0.0000;
	275	1	0.09	0.03	0	0	1	1.06372498	-9.4611842	110	1	1.12	0.95	93.7057	-0.2359	0.0000	0.0000;
	276	1	0	0	0	0	1	1.06244606	-9.61237595	110	1	1.12	0.95	93.8232	-0.2324	0.0000	0.0000;
	277	1	6.311	3.59	0	0	1	1.08481039	-1.26610423	110	1	1.12	0.95	90.6921	-0.0018	0.0000	0.0000;
	278	1	0	0	0	0	1	1.0813934	-1.83625379	110	1	1.12	0.95	90.7613	-0.0044	0.0000	0.0000;
	279	1	3.606	1.4	0	0	1	1.07700861	-2.76736068	110	1	1.12	0.95	91.7866	-0.0614	0.0000	0.0000;
	280	1	1.352	0.5	0	0	1	1.08533977	-10.3094994	110	1	1.12	0.95	94.1945	-0.7567	0.0000	0.0000;
	281	1	2.705	0	0	0	1	1.07635815	-10.880793	110	1	1.12	0.95	94.9829	-0.2707	0.0000	0.0000;
	282	1	2.705	1	0	0	1	1.06386661	-9.49082331	110	1	1.12	0.95	93.6580	-0.2764	0.0000	0.0000;
	283	1	3.606	1	0	0	1	1.06502877	-9.06233169	110	1	1.12	0.95	94.0075	-0.4332	0.0000	0.0000;
	284	1	16.229	16	0	0	1	1.01556895	0.537054144	110	1	1.12	0.95	90.1899	0.7357	0.0000	0.0000;
	285	1	40.572	42	0	0	1	1.01529682	0.537390685	110	1	1.12	0.95	90.1947	0.7387	0.0000	0.0000;
	286	1	0.992	0.3	0	0	1	1.04706891	2.55189697	110	1	1.12	0.95	89.5935	-0.3889	0.0000	0.0000;
	287	1	0	0	0	0	1	1.04017496	2.2723963	110	1	1.12	0.95	89.7084	0.0083	0.0000	0.0000;
	288	1	4.779	2.1	0	0	1	1.08452774	-1.18433153	110	1	1.12	0.95	90.6496	0.0407	0.0000	0.0000;
	289	1	4.959	1.2	0	0	1	1.08160998	-1.66291412	110	1	1.12	0.95	91.0719	0.0392	0.0000	0.0000;
	290	1	4.508	1.5	0	0	1	1.06461723	-12.9501027	110	1	1.12	0.95	96.4731	-0.2454	0.0000	0.0000;
	291	1	2.705	1	0	0	1	1.0827796	-11.0569874	110	1	1.12	0.95	94.5387	-0.7848	0.0000	0.0000;
	292	1	2.524	2	0	0	1	1.05861802	-10.1131809	110	1	1.12	0.95	94.8810	-0.0927	0.0000	0.0000;
	293	1	1.443	0.4	0	0	1	1.07306459	-2.9812796	110	1	1.12	0.95	92.0648	0.1369	0.0000	0.0000;
	294	1	9.466	4.2	0	0	1	1.06556117	-9.01298717	110	1	1.12	0.95	93.9546	-0.4454	0.0000	0.0000;
	295	1	7.213	2.5	0	0	1	1.06466143	-9.40286409	110	1	1.12	0.95	93.7591	-0.2593	0.0000	0.0000;
	296	1	2.795	1.13	0	0	1	1.08499841	-1.06303045	110	1	1.12	0.95	90.5410	0.0599	0.0000	0.0000;
	297	1	1.406	1.1	0	0	1	1.07477403	-7.91629957	110	1	1.12	0.95	93.2428	-0.3208	0.0000	0.0000;
	298	1	2.164	0.4	0	0	1	1.05542236	-9.49138311	110	1	1.12	0.95	94.4564	-0.2277	0.0000	0.0000;
	299	1	3.787	0.5	0	0	1	1.07266554	-3.02763599	110	1	1.12	0.95	92.1149	0.1274	0.0000	0.0000;
	300	1	3.606	0.7	0	0	1	1.08000767	-2.28313385	110	1	1.12	0.95	91.3466	-0.0446	0.0000	0.0000;
	301	1	2.885	1.27	0	0	1	1.07714794	-1.80100041	110	1	1.12	0.95	91.1945	0.0934	0.0000	0.0000;
	302	1	4.598	1.85	0	0	1	1.0723294	-2.64824893	110	1	1.12	0.95	91.7399	0.0815	0.0000	0.0000;
	303	1	5.409	1	0	0	1	1.08480296	-9.98315596	110	1	1.12	0.95	94.0152	-0.9574	0.0000	0.0000;
	304	1	0	0	0	0	1	1.08165152	-1.84041243	110	1	1.12	0.95	90.7613	-0.0175	0.0000	0.0000;
	305	1	2.705	1	0	0	1	1.02807196	-0.0781407191	110	1	1.12	0.95	91.4196	0.0604	0.0000	0.0000;
	306	1	5.86	2.57	0	0	1	1.08495811	-1.06336244	110	1	1.12	0.95	90.5418	0.0616	0.0000	0.0000;
	307	1	3.877	1.56	0	0	1	1.07675983	-2.21907543	110	1	1.12	0.95	91.2341	0.0289	0.0000	0.0000;
	308	1	5.229	2.11	0	0	1	1.08471053	-1.21623897	110	1	1.12	0.95	90.6608	0.0278	0.0000	0.0000;
	309	1	6.401	2.58	0	0	1	1.07668894	-1.82895841	110	1	1.12	0.95	91.2412	0.1043	0.0000	0.0000;
	310	2	8.934	4.46	0	0	1	1.07912	-1.68035609	110	1	1.12	0.95	90.9502	0.0545	0.0000	0.0000;
	311	1	0.847	0.56	0	0	1	1.07690288	-1.81214266	110	1	1.12	0.95	91.2336	0.0974	0.0000	0.0000;
	312	2	7.57	3.66	0	0	1	1.07487	-2.39967425	110	1	1.12	0.95	91.4685	0.0000	0.0000	0.0000;
	313	1	0	0	0	0	1	1.07698383	-1.81117012	110	1	1.12	0.95	91.2118	0.0972	0.0000	0.0000;
	314	2	4.173	2.02	0	0	1	1.08518	-1.21800278	110	1	1.12	0.95	90.6475	0.0000	0.0000	0.0000;
	315	1	9.025	4.72	0	0	1	1.07932776	-1.85023648	110	1	1.12	0.95	90.8803	0.0795	0.0000	0.0000;
	316	1	4.418	0.6	0	0	1	1.07330984	-2.86888652	110	1	1.12	0.95	91.9648	0.1127	0.0000	0.0000;
	317	1	1.352	0.5	0	0	1	1.08619629	-10.0439533	110	1	1.12	0.95	94.2783	-1.1021	0.0000	0.0000;
	318	1	2.254	1	0	0	1	1.05544369	-10.3997312	110	1	1.12	0.95	95.1121	0.0448	0.0000	0.0000;
	319	1	2.254	1.25	0	0	1	1.05545079	-10.511004	110	1	1.12	0.95	95.2484	0.0456	0.0000	0.0000;
	320	1	3.606	1.25	0	0	1	1.05542614	-10.5087585	110	1	1.12	0.95	95.2469	0.0449	0.0000	0.0000;
	321	1	4.057	2	0	0	1	1.06046636	-9.23646967	110	1	1.12	0.95	93.8347	-0.1126	0.0000	0.0000;
	322	1	4.057	1.63	0	0	1	1.08472577	-1.17896494	110	1	1.12	0.95	90.6308	0.0399	0.0000	0.0000;
	323	2	7.213	2.9	0	0	1	1.08432	-1.28432628	110	1	1.12	0.95	90.7163	0.0092	0.0000	0.0000;
	324	1	4.959	2.5	0	0	1	1.07377232	-11.0992398	110	1	1.12	0.95	95.2327	-0.2118	0.0000	0.0000;
	325	1	6.582	2.89	0	0	1	1.07936996	-1.83311206	110	1	1.12	0.95	90.8736	0.0811	0.0000	0.0000;
	326	1	2.344	0.94	0	0	1	1.07888473	-1.69686923	110	1	1.12	0.95	90.9679	0.0608	0.0000	0.0000;
	327	1	2.344	0.94	0	0	1	1.07837994	-1.72786356	110	1	1.12	0.95	91.0288	0.0709	0.0000	0.0000;
	328	1	5.409	2.5	0	0	1	1.0757372	-10.8982636	110	1	1.12	0.95	95.0158	-0.2288	0.0000	0.0000;
	329	1	7.663	2	0	0	1	1.0530757	-9.78338114	110	1	1.12	0.95	94.7703	-0.1284	0.0000	0.0000;
	330	1	5.139	2.07	0	0	1	1.0783582	-1.72939504	110	1	1.12	0.95	91.0311	0.0714	0.0000	0.0000;
	331	1	3.606	1.4	0	0	1	1.07902621	-2.12503703	110	1	1.12	0.95	91.2150	0.0282	0.0000	0.0000;
	332	1	2.254	0.8	0	0	1	1.07881304	-2.17599077	110	1	1.12	0.95	91.2640	0.0256	0.0000	0.0000;
	333	1	11.451	4.61	0	0	1	1.08371317	-1.33314236	110	1	1.12	0.95	90.7661	0.0270	0.0000	0.0000;
	334	1	6.312	1	0	0	1	1.08843003	-4.79398338	110	1	1.12	0.95	91.2358	-1.3949	0.0000	0.0000;
	335	1	1.803	0.5	0	0	1	1.07177148	-2.29119923	110	1	1.12	0.95	91.8067	0.1850	0.0000	0.0000;