function mpc = case2736sp_resqlim
%CASE2736SP_RESQLIM

%% MATPOWER Case Format : Version 2
mpc.version = '2';

%%-----  Power Flow Data  -----%%
%% system MVA base
mpc.baseMVA = 100;

%% bus data
%    bus_i    type    Pd    Qd    Gs    Bs    area    Vm    Va    baseKV    zone    Vmax    Vmin    lam_P    lam_Q    mu_Vmax    mu_Vmin
mpc.bus = [
    1    1    0    0    0    0    1    1.08125286    36.8866597    220    1    1.11    0.95    97.9642    0.1737    0.0000    0.0000;
    2    1    0    0    0    0    1    1.08545876    38.6800759    220    1    1.11    0.95    97.5886    0.0592    0.0000    0.0000;
    3    1    0    0    0    0    1    1.06388179    12.65612    220    1    1.11    0.95    110.9086    0.1409    0.0000    0.0000;
    4    1    0    0    0    0    1    1.0701926    32.5845416    220    1    1.11    0.95    100.0063    0.4639    0.0000    0.0000;
    5    1    0    0    0    0    1    1.07022354    32.5837192    220    1    1.11    0.95    100.0073    0.4634    0.0000    0.0000;
    6    1    0    0    0    0    1    1.04682409    21.1874329    220    1    1.11    0.95    104.7833    0.8183    0.0000    0.0000;
    7    1    0    0    0    0    1    1.04695375    21.1971345    220    1    1.11    0.95    104.7745    0.8156    0.0000    0.0000;
    8    1    0    0    0    0    1    1.01067705    25.039027    400    1    1.05    0.95    103.5752    0.3513    0.0000    0.0000;
    9    1    0    0    0    0    1    1.01070411    25.0439657    400    1    1.05    0.95    103.5718    0.3500    0.0000    0.0000;
    10    1    0    0    0    0    1    1.03959397    21.1778484    220    1    1.11    0.95    105.6057    1.0277    0.0000    0.0000;
    11    1    0    0    0    0    1    1.03948011    21.1718183    220    1    1.11    0.95    105.6080    1.0297    0.0000    0.0000;
    12    1    0    0    0    0    1    1.0393987    21.1768059    220    1    1.11    0.95    105.6066    1.0315    0.0000    0.0000;
    13    1    0    0    0    0    1    1.03935289    21.1667984    220    1    1.11    0.95    105.6077    1.0320    0.0000    0.0000;
    14    1    0    0    0    0    1    1.00134053    26.4585262    400    1    1.05    0.95    102.9672    0.6071    0.0000    0.0000;
    15    1    0    0    0    0    1    1.01525528    22.2293055    400    1    1.05    0.95    104.4832    0.0632    0.0000    0.0000;
    16    1    0    0    0    0    1    1.01525528    22.2293055    400    1    1.05    0.95    104.4832    0.0632    0.0000    0.0000;
    17    1    0    0    0    0    1    1.07322063    15.6304639    220    1    1.11    0.95    108.4499    0.1084    0.0000    0.0000;
    18    1    0    0    0    0    1    1.0732809    15.6303637    220    1    1.11    0.95    108.4483    0.1077    0.0000    0.0000;
    19    1    0    0    0    0    1    1.07526472    33.6276048    220    1    1.11    0.95    99.4431    0.3577    0.0000    0.0000;
    20    1    0    0    0    0    1    1.07531187    33.6306006    220    1    1.11    0.95    99.4429    0.3572    0.0000    0.0000;
    21    1    0    0    0    0    1    1.05546984    20.3168459    220    1    1.11    0.95    105.9001    0.5847    0.0000    0.0000;
    22    1    0    0    0    0    1    1.05546984    20.3168459    220    1    1.11    0.95    105.9001    0.5847    0.0000    0.0000;
    23    1    0    0    0    0    1    1.03863063    21.1668549    220    1    1.11    0.95    105.5971    1.0403    0.0000    0.0000;
    24    1    0    0    0    0    1    1.07722079    35.3749249    220    1    1.11    0.95    98.8433    0.2741    0.0000    0.0000;
    25    1    0    0    0    0    1    1.01257971    24.2260766    400    1    1.05    0.95    103.8800    0.3703    0.0000    0.0000;
    26    3    61.358    72.054    0    0    1    1.09091    37.2260908    220    1    1.11    0.95    97.7882    0.0000    1044.8801    0.0000;
    27    2    84.861    122.06    0    0    1    1.09091    38.9711211    220    1    1.11    0.95    97.4519    0.0000    1601.4174    0.0000;
    28    1    49    74    0    0    1    1.02711137    36.029099    400    1    1.05    0.95    98.6073    -0.0008    0.0000    0.0000;
    29    1    49    74    0    0    1    1.02709881    36.0352948    400    1    1.05    0.95    98.6040    -0.0000    0.0000    0.0000;
    30    1    0    0    0    0    1    1.04544975    20.8947707    220    1    1.11    0.95    105.6749    0.8355    0.0000    0.0000;
    31    1    0    0    0    0    1    1.026648    34.5358297    400    1    1.05    0.95    98.8892    -0.0693    0.0000    0.0000;
    32    1    0    0    0    0    1    1.03621878    20.8523427    220    1    1.11    0.95    105.8196    1.0971    0.0000    0.0000;
    33    1    0    0    0    0    1    1.07746859    30.2553242    220    1    1.11    0.95    100.8633    0.2948    0.0000    0.0000;
    34    1    0    0    0    0    1    1.07531529    26.8295404    220    2    1.11    0.95    101.9122    -0.3204    0.0000    0.0000;
    35    1    0    0    0    0    1    1.0774191    27.2840757    220    2    1.11    0.95    102.0744    -0.6743    0.0000    0.0000;
    36    1    0    0    0    0    1    1.08617398    28.2450794    220    2    1.11    0.95    101.3876    -0.8651    0.0000    0.0000;
    37    1    0    0    0    0    1    1.08616184    28.2431652    220    2    1.11    0.95    101.3886    -0.8649    0.0000    0.0000;
    38    1    0    0    0    0    1    1.06297228    25.5935749    220    2    1.11    0.95    102.7618    -0.4427    0.0000    0.0000;
    39    1    0    0    0    0    1    1.10333988    28.6457766    220    2    1.11    0.95    101.1082    -3.0865    18045.9803    0.0000;
    40    1    0    0    0    0    1    1.1032272    28.6462389    220    2    1.11    0.95    101.1098    -3.0744    0.0000    0.0000;
    41    1    0    0    0    0    1    1.01846713    28.8452966    400    2    1.05    0.95    101.1345    -2.0956    0.0000    0.0000;
    42    2    25    0    0    0    1    1.09091    27.3513425    220    2    1.11    0.95    101.8427    -0.1316    0.0000    0.0000;
    43    2    26    0    0    0    1    1.09091    27.369426    220    2    1.11    0.95    101.8368    -0.1325    0.0000    0.0000;
    44    1    25    0    0    0    1    1.01970361    27.8657697    400    2    1.05    0.95    102.0500    -0.0378    0.0000    0.0000;
    45    1    0    0    0    0    1    1.01968095    27.8626746    400    2    1.05    0.95    102.0499    -0.0374    0.0000    0.0000;
    46    1    0    0    0    0    1    1.09987885    28.1433056    220    2    1.11    0.95    101.4510    -2.8780    0.0000    0.0000;
    47    1    0    0    0    0    1    1.03217173    25.4774471    400    2    1.05    0.95    102.2308    -0.8351    0.0000    0.0000;
    48    1    0    0    0    0    1    1.03214174    25.4716003    400    2    1.05    0.95    102.2336    -0.8342    0.0000    0.0000;
    49    1    0    0    0    0    1    1.02685259    27.3391954    400    2    1.05    0.95    102.0681    -0.1569    0.0000    0.0000;
    50    1    0    0    0    0    1    1.07157154    26.6537749    220    2    1.11    0.95    102.0731    -0.4925    0.0000    0.0000;
    51    1    0    0    0    0    1    1.07155077    26.6565995    220    2    1.11    0.95    102.0731    -0.4924    0.0000    0.0000;
    52    1    0    0    0    0    1    1.03262106    28.0825775    400    2    1.05    0.95    101.6773    -0.7629    0.0000    0.0000;
    53    1    0    0    0    0    1    1.03264829    28.0846874    400    2    1.05    0.95    101.6757    -0.7648    0.0000    0.0000;
    54    2    13    0    0    0    1    1.09116    29.264621    220    2    1.11    0.95    100.9266    -1.0086    0.0000    0.0000;
    55    2    13    0    0    0    1    1.09114    29.2610724    220    2    1.11    0.95    100.9250    -1.0101    0.0000    0.0000;
    56    2    13    0    0    0    1    1.04039    29.0157997    400    2    1.05    0.95    101.1741    -1.1458    0.0000    0.0000;
    57    2    26    0    0    0    1    1.04036    29.0122409    400    2    1.05    0.95    101.1759    -1.1461    0.0000    0.0000;
    58    1    89.067    40    0    0    1    1.08737178    26.9129877    220    2    1.11    0.95    102.0281    -0.2262    0.0000    0.0000;
    59    1    0    0    0    0    1    1.08735401    26.914734    220    2    1.11    0.95    102.0268    -0.2267    0.0000    0.0000;
    60    1    0    0    0    0    1    1.09607404    28.0650604    220    2    1.11    0.95    101.4486    -2.4534    0.0000    0.0000;
    61    1    0    0    0    0    1    1.09047212    26.9259815    220    2    1.11    0.95    102.1670    -0.6982    0.0000    0.0000;
    62    1    0    0    0    0    1    1.09045096    26.9230217    220    2    1.11    0.95    102.1674    -0.6941    0.0000    0.0000;
    63    1    0    0    0    0    1    1.04297595    27.9334499    400    2    1.05    0.95    101.4167    -1.0744    0.0000    0.0000;
    64    1    0    0    0    0    1    1.0429274    27.9217602    400    2    1.05    0.95    101.4211    -1.0730    0.0000    0.0000;
    65    1    0    0    0    0    1    1.07945663    27.1607698    220    2    1.11    0.95    101.8675    -0.6568    0.0000    0.0000;
    66    1    0    0    0    0    1    1.08096145    27.326864    220    2    1.11    0.95    101.7568    -0.6842    0.0000    0.0000;
    67    1    0    0    0    0    1    1.07221834    27.3755441    220    2    1.11    0.95    101.7225    -0.4651    0.0000    0.0000;
    68    1    0    0    0    0    1    1.08706033    32.4532293    220    3    1.11    0.95    99.8077    -0.3688    0.0000    0.0000;
    69    1    10.327    0    0    0    1    1.09171443    28.9845216    220    3    1.11    0.95    101.2532    -0.5368    0.0000    0.0000;
    70    1    8.032    3.714    0    0    1    1.09156009    28.9914578    220    3    1.11    0.95    101.2506    -0.5330    0.0000    0.0000;
    71    1    0    0    0    0    1    1.08616705    32.1735343    220    3    1.11    0.95    99.5961    0.0929    0.0000    0.0000;
    72    1    0    0    0    0    1    1.08622551    32.1855159    220    3    1.11    0.95    99.5928    0.0917    0.0000    0.0000;
    73    1    0    0    0    0    1    1.08711663    31.8604124    220    3    1.11    0.95    99.7104    0.0192    0.0000    0.0000;
    74    1    0    0    0    0    1    1.0870942    31.8555337    220    3    1.11    0.95    99.7113    0.0193    0.0000    0.0000;
    75    1    0    0    0    0    1    1.08383513    30.5765586    220    3    1.11    0.95    100.6839    0.1752    0.0000    0.0000;
    76    1    0    0    0    0    1    1.08371337    30.5693903    220    3    1.11    0.95    100.6881    0.1774    0.0000    0.0000;
    77    2    27    70    0    0    1    1.09091    32.9891372    220    3    1.11    0.95    99.2188    0.0000    0.0000    0.0000;
    78    2    18.7    42    0    0    1    1.09091    33.0142482    220    3    1.11    0.95    99.2865    0.0000    0.0000    0.0000;
    79    1    4.934    0.817    0    0    1    1.07981829    31.684511    220    3    1.11    0.95    100.0821    0.2170    0.0000    0.0000;
    80    1    0    0    0    0    1    1.079832    31.6856878    220    3    1.11    0.95    100.0813    0.2168    0.0000    0.0000;
    81    1    18    57    0    0    1    1.02214153    31.9876076    400    3    1.05    0.95    99.4311    -0.0467    0.0000    0.0000;
    82    1    0    0    0    0    1    1.08272608    30.9106828    220    3    1.11    0.95    99.9377    -0.6237    0.0000    0.0000;
    83    1    0    0    0    0    1    1.08748267    31.3713671    220    3    1.11    0.95    100.0804    0.0223    0.0000    0.0000;
    84    1    0    0    0    0    1    1.08748783    31.376502    220    3    1.11    0.95    100.0786    0.0222    0.0000    0.0000;
    85    1    44.864    -6.4    0    0    1    1.08843276    32.4355319    220    3    1.11    0.95    99.7311    -0.3991    0.0000    0.0000;
    86    1    0    0    0    0    1    1.08841653    32.4301003    220    3    1.11    0.95    99.7331    -0.3985    0.0000    0.0000;
    87    1    0    0    0    0    1    1.08393604    31.6647323    220    3    1.11    0.95    99.8837    0.1014    0.0000    0.0000;
    88    1    0    0    0    0    1    1.08391354    31.6705268    220    3    1.11    0.95    99.8819    0.1022    0.0000    0.0000;
    89    1    0    0    0    0    1    1.08932565    32.9059342    220    3    1.11    0.95    99.5000    -0.4139    0.0000    0.0000;
    90    1    0    0    0    0    1    1.08932806    32.9013337    220    3    1.11    0.95    99.5022    -0.4161    0.0000    0.0000;
    91    1    0    0    0    0    1    1.03179716    34.1190536    400    3    1.05    0.95    99.2147    -0.2518    0.0000    0.0000;
    92    1    0    0    0    0    1    1.03179487    34.1172321    400    3    1.05    0.95    99.2150    -0.2518    0.0000    0.0000;
    93    1    0    0    0    0    1    1.08488841    31.2488064    220    3    1.11    0.95    100.0665    0.0637    0.0000    0.0000;
    94    1    0    0    0    0    1    1.08488919    31.2442397    220    3    1.11    0.95    100.0682    0.0640    0.0000    0.0000;
    95    1    0    0    0    0    1    1.08474618    31.4520941    220    3    1.11    0.95    100.0032    -0.1863    0.0000    0.0000;
    96    1    0    0    0    0    1    1.08474514    31.4493655    220    3    1.11    0.95    100.0027    -0.1888    0.0000    0.0000;
    97    1    12.49    3.696    0    0    1    1.08923067    32.2533314    220    3    1.11    0.95    99.6560    -0.2413    0.0000    0.0000;
    98    1    17.327    6.126    0    0    1    1.08922016    32.2466351    220    3    1.11    0.95    99.6584    -0.2434    0.0000    0.0000;
    99    1    0    0    0    0    1    1.09176449    29.0090486    220    3    1.11    0.95    101.2403    -0.5372    0.0000    0.0000;
    100    1    0    0    0    0    1    1.09176951    29.0088903    220    3    1.11    0.95    101.2400    -0.5362    0.0000    0.0000;
    101    1    0    0    0    0    1    1.07664078    30.1963565    220    3    1.11    0.95    100.9840    0.3400    0.0000    0.0000;
    102    1    0    0    0    0    1    1.07660607    30.1967215    220    3    1.11    0.95    100.9833    0.3405    0.0000    0.0000;
    103    2    14    40    0    0    1    1.08905    31.3470233    220    3    1.11    0.95    100.1083    0.0000    0.0000    0.0000;
    104    2    0    0    0    0    1    1.08898671    31.3193789    220    3    1.11    0.95    100.1174    0.0013    0.0000    0.0000;
    105    2    7    18    0    0    1    1.0875    31.7343306    220    3    1.11    0.95    99.8094    0.0000    0.0000    0.0000;
    106    2    0    0    0    0    1    1.08740172    31.7321109    220    3    1.11    0.95    99.8116    0.0000    0.0000    0.0000;
    107    1    0    13.892    0    0    1    1.08893191    31.6884734    220    3    1.11    0.95    99.9190    -0.5043    0.0000    0.0000;
    108    1    73.779    8.097    0    0    1    1.08896134    31.6785464    220    3    1.11    0.95    99.9214    -0.5078    0.0000    0.0000;
    109    1    0    0    0    0    1    1.08276009    30.9364052    220    3    1.11    0.95    100.6245    0.0315    0.0000    0.0000;
    110    1    0    0    0    0    1    1.07590158    31.5704152    220    3    1.11    0.95    100.2389    0.3415    0.0000    0.0000;
    111    1    0    0    0    0    1    1.07592699    31.5710259    220    3    1.11    0.95    100.2383    0.3411    0.0000    0.0000;
    112    1    0    0    0    0    1    1.08067368    31.7681422    220    3    1.11    0.95    100.0151    0.1993    0.0000    0.0000;
    113    1    0    0    0    0    1    1.08074114    31.7773918    220    3    1.11    0.95    100.0113    0.1982    0.0000    0.0000;
    114    1    0    0    0    0    1    1.03058242    31.0953948    400    3    1.05    0.95    100.0335    -0.6552    0.0000    0.0000;
    115    2    0    0    0    0    1    1.08991929    32.64575    220    3    1.11    0.95    99.3961    -0.0492    0.0000    0.0000;
    116    1    8    15    0    0    1    1.08990617    32.6484716    220    3    1.11    0.95    99.3969    -0.0498    0.0000    0.0000;
    117    2    5.5    10    0    0    1    1.08788    31.7553087    220    3    1.11    0.95    100.0549    -0.0505    0.0000    0.0000;
    118    1    0    0    0    0    1    1.08790156    31.746186    220    3    1.11    0.95    100.0569    -0.0515    0.0000    0.0000;
    119    1    0    0    0    0    1    1.04361831    28.7683164    400    3    1.05    0.95    101.1591    -1.1087    0.0000    0.0000;
    120    1    0    0    0    0    1    1.04364824    28.7732252    400    3    1.05    0.95    101.1569    -1.1097    0.0000    0.0000;
    121    1    0    0    0    0    1    1.03912593    31.2613856    400    3    1.05    0.95    99.9752    -1.1326    0.0000    0.0000;
    122    1    0    0    0    0    1    1.03913825    31.2667439    400    3    1.05    0.95    99.9734    -1.1353    8588.8847    0.0000;
    123    1    0    0    0    0    1    1.08200985    30.8702117    220    3    1.11    0.95    100.7429    0.0437    0.0000    0.0000;
    124    1    11    17.5    0    0    1    1.09093574    32.8108967    220    3    1.11    0.95    99.3793    -0.0039    0.0000    0.0000;
    125    2    41.353    61.2    0    0    1    1.09091    32.8281383    220    3    1.11    0.95    99.3738    0.0000    0.0000    0.0000;
    126    2    14    33    0    0    1    1.02511    31.5064636    400    3    1.05    0.95    99.7881    -0.2925    0.0000    0.0000;
    127    1    0    0    0    0    1    1.02510745    31.506929    400    3    1.05    0.95    99.7881    -0.2933    0.0000    0.0000;
    128    1    0    0    0    0    1    1.0879993    32.3225121    220    3    1.11    0.95    99.7900    -0.3859    0.0000    0.0000;
    129    1    0    0    0    0    1    1.0879809    32.3246658    220    3    1.11    0.95    99.7883    -0.3854    0.0000    0.0000;
    130    1    0    0    0    0    1    1.08856894    32.5523698    220    3    1.11    0.95    99.6716    -0.3775    0.0000    0.0000;
    131    2    1.5    9    0    0    1    1.08591    30.9435858    220    3    1.11    0.95    100.5080    0.1314    0.0000    0.0000;
    132    2    0    0    0    0    1    1.08374552    30.5691604    220    3    1.11    0.95    100.6881    0.1766    0.0000    0.0000;
    133    2    11.215    8.3    0    0    1    1.09091    29.1284245    220    4    1.11    0.95    101.2167    0.0000    1024.1353    0.0000;
    134    2    10.333    7.7    0    0    1    1.09091    29.1252358    220    4    1.11    0.95    101.2175    0.0022    0.0000    0.0000;
    135    1    0    0    0    0    1    1.08114033    24.5797956    220    4    1.11    0.95    100.9562    -2.0325    0.0000    0.0000;
    136    1    0    0    0    0    1    1.08462505    25.4102554    220    4    1.11    0.95    100.8377    -1.3233    0.0000    0.0000;
    137    1    0    0    0    0    1    1.0000273    25.246961    400    4    1.05    0.95    101.9525    0.0152    0.0000    0.0000;
    138    1    0    0    0    0    1    1.00003793    25.2470836    400    4    1.05    0.95    101.9534    0.0152    0.0000    0.0000;
    139    1    0    0    0    0    1    1.0756114    17.9657226    220    4    1.11    0.95    108.0210    0.2680    0.0000    0.0000;
    140    1    0    0    0    0    1    1.07490196    13.4149948    220    4    1.11    0.95    110.4893    0.1754    0.0000    0.0000;
    141    1    0    0    0    0    1    1.07490196    13.4149948    220    4    1.11    0.95    110.4893    0.1754    0.0000    0.0000;
    142    1    0    0    0    0    1    1.07865169    15.4619584    220    4    1.11    0.95    108.7946    0.2311    0.0000    0.0000;
    143    1    0    0    0    0    1    1.07425516    23.2962395    220    4    1.11    0.95    101.6440    -1.1967    0.0000    0.0000;
    144    1    0    0    0    0    1    1.07425516    23.2962395    220    4    1.11    0.95    101.6440    -1.1967    0.0000    0.0000;
    145    2    0    0    0    0    1    1.08965015    25.6504227    220    4    1.11    0.95    103.0118    0.0224    0.0000    0.0000;
    146    2    0    0    0    0    1    1.08964271    25.6496424    220    4    1.11    0.95    103.0087    0.0234    0.0000    0.0000;
    147    2    25.553    12.9    0    0    1    1.08582    15.8275399    220    4    1.11    0.95    108.8237    0.0000    137.4001    0.0000;
    148    1    0    0    0    0    1    1.08579905    15.8318282    220    4    1.11    0.95    108.8222    0.0012    0.0000    0.0000;
    149    2    11    12    0    0    1    1.02501    17.067179    400    4    1.05    0.95    108.5541    -0.1626    0.0000    0.0000;
    150    2    11.922    13.7    0    0    1    1.025    17.0684656    400    4    1.05    0.95    108.5538    -0.1620    0.0000    0.0000;
    151    1    0    0    0    0    1    1.05564031    17.5284899    220    4    1.11    0.95    108.6543    0.9181    0.0000    0.0000;
    152    1    0    0    0    0    1    1.08104689    19.8588358    220    4    1.11    0.95    105.8110    0.2418    0.0000    0.0000;
    153    1    0    0    0    0    1    1.08102626    19.8540331    220    4    1.11    0.95    105.8119    0.2429    0.0000    0.0000;
    154    2    19.475    64.3    0    0    1    1.09091    27.5511027    220    4    1.11    0.95    100.2380    -0.0784    0.0000    0.0000;
    155    2    16    33    0    0    1    1.09091    27.5430188    220    4    1.11    0.95    100.2439    -0.0748    0.0000    0.0000;
    156    1    0    0    0    0    1    1.00130798    27.131716    400    4    1.05    0.95    100.5569    -0.0001    0.0000    0.0000;
    157    1    10    25    0    0    1    1.0012906    27.1375073    400    4    1.05    0.95    100.5542    0.0000    0.0000    0.0000;
    158    1    0    0    0    0    1    1.07394733    13.4545244    220    4    1.11    0.95    110.3861    0.1678    0.0000    0.0000;
    159    1    0    0    0    0    1    1.07394733    13.4545244    220    4    1.11    0.95    110.3861    0.1678    0.0000    0.0000;
    160    1    0    0    0    0    1    1.00391883    25.2567698    400    4    1.05    0.95    101.9142    0.0037    0.0000    0.0000;
    161    1    0    0    0    0    1    1.00704428    26.4074245    400    4    1.05    0.95    101.4418    -0.0330    0.0000    0.0000;
    162    1    0    0    0    0    1    1.0070328    26.4031698    400    4    1.05    0.95    101.4436    -0.0331    0.0000    0.0000;
    163    2    5.54    2.93    0    0    1    1.09091    25.4969878    220    4    1.11    0.95    103.0649    0.0000    332.7039    0.0000;
    164    2    18.255    11.5    0    0    1    1.09091    25.4887352    220    4    1.11    0.95    103.0713    0.0000    1279.9799    0.0000;
    165    1    0    0    0    0    1    1.09091    25.4887352    220    4    1.11    0.95    103.0713    0.0000    0.0000    0.0000;
    166    1    0    0    0    0    1    1.07456057    13.5005152    220    4    1.11    0.95    110.8567    0.0398    0.0000    0.0000;
    167    1    0    0    0    0    1    1.0740253    13.2793661    220    4    1.11    0.95    110.5522    0.1850    0.0000    0.0000;
    168    1    0    0    0    0    1    1.07565218    16.6777957    220    4    1.11    0.95    108.8217    0.1748    0.0000    0.0000;
    169    1    0    0    0    0    1    1.07564344    16.6694251    220    4    1.11    0.95    108.8244    0.1745    0.0000    0.0000;
    170    1    0    0    0    0    1    1.01066012    16.1144193    400    4    1.05    0.95    108.9582    0.2096    0.0000    0.0000;
    171    1    0    0    0    0    1    1.01066012    16.1144193    400    4    1.05    0.95    108.9582    0.2096    0.0000    0.0000;
    172    1    0    0    0    0    1    1.05956027    20.2043865    220    4    1.11    0.95    106.2796    0.8193    0.0000    0.0000;
    173    1    0    0    0    0    1    1.05955774    20.2107186    220    4    1.11    0.95    106.2773    0.8197    0.0000    0.0000;
    174    1    0    0    0    0    1    1.06950207    20.3418064    220    4    1.11    0.95    105.2017    0.4016    0.0000    0.0000;
    175    1    0    0    0    0    1    1.07987521    24.8412539    220    4    1.11    0.95    100.9532    -1.9153    0.0000    0.0000;
    176    1    0    0    0    0    1    1.0798782    24.85041    220    4    1.11    0.95    100.9503    -1.9197    0.0000    0.0000;
    177    1    0    0    0    0    1    1.07934662    26.1799167    220    4    1.11    0.95    100.4934    -2.2064    0.0000    0.0000;
    178    1    0    0    0    0    1    1.07934662    26.1799167    220    4    1.11    0.95    100.4934    -2.2064    0.0000    0.0000;
    179    2    3.13    1.5    0    0    1    1.09091    21.1627428    220    4    1.11    0.95    105.1553    0.0000    0.0000    0.0000;
    180    1    0    0    0    0    1    1.05707128    19.2430017    220    4    1.11    0.95    106.7210    0.8008    0.0000    0.0000;
    181    1    0    0    0    0    1    1.05286646    18.2211345    220    5    1.11    0.95    107.4384    0.2064    0.0000    0.0000;
    182    1    0    0    0    0    1    1.08304646    15.1877748    220    5    1.11    0.95    108.8386    -0.4811    0.0000    0.0000;
    183    1    0    0    0    0    1    1.02989421    16.2824606    400    5    1.05    0.95    108.4907    -0.4744    0.0000    0.0000;
    184    1    0    0    0    0    1    1.0299138    16.2809045    400    5    1.05    0.95    108.4921    -0.4746    0.0000    0.0000;
    185    1    0    0    0    0    1    1.01953765    17.9514663    400    5    1.05    0.95    107.5507    0.1630    0.0000    0.0000;
    186    1    0    0    0    0    1    1.01955952    17.9485674    400    5    1.05    0.95    107.5529    0.1627    0.0000    0.0000;
    187    1    0    0    0    0    1    1.06404547    14.368381    220    5    1.11    0.95    109.3264    0.2353    0.0000    0.0000;
    188    1    0    0    0    0    1    1.06409226    14.3663277    220    5    1.11    0.95    109.3271    0.2342    0.0000    0.0000;
    189    1    0    0    0    0    1    1.05519892    18.5789532    220    5    1.11    0.95    107.5941    0.3848    0.0000    0.0000;
    190    1    0    0    0    0    1    1.05515888    18.5711404    220    5    1.11    0.95    107.5949    0.3844    0.0000    0.0000;
    191    1    0    0    0    0    1    0.999616874    18.7408793    400    5    1.05    0.95    106.7351    0.4434    0.0000    0.0000;
    192    1    0    0    0    0    1    1.05699061    18.9238517    220    5    1.11    0.95    107.1996    0.2301    0.0000    0.0000;
    193    1    0    0    0    0    1    1.05696686    18.9300509    220    5    1.11    0.95    107.1982    0.2309    0.0000    0.0000;
    194    1    0    0    0    0    1    1.01819143    16.3390075    400    5    1.05    0.95    108.4815    0.3003    0.0000    0.0000;
    195    1    0    0    0    0    1    1.01816712    16.3350163    400    5    1.05    0.95    108.4841    0.3010    0.0000    0.0000;
    196    1    0    0    0    0    1    1.05382966    13.9101064    220    5    1.11    0.95    109.8816    0.5588    0.0000    0.0000;
    197    1    0    0    0    0    1    1.0538494    13.909054    220    5    1.11    0.95    109.8811    0.5586    0.0000    0.0000;
    198    1    0    0    0    -117    1    1.02197812    17.2393807    400    5    1.05    0.95    107.8538    -0.3758    0.0000    0.0000;
    199    1    0    0    0    0    1    1.02202212    17.2353799    400    5    1.05    0.95    107.8567    -0.3766    0.0000    0.0000;
    200    1    0    0    0    0    1    1.04743286    17.4474415    220    5    1.11    0.95    108.4342    0.6220    0.0000    0.0000;
    201    1    0    0    0    0    1    1.04741794    17.4474807    220    5    1.11    0.95    108.4350    0.6227    0.0000    0.0000;
    202    1    0    0    0    0    1    1.05021752    18.4181258    220    5    1.11    0.95    107.9103    0.7152    0.0000    0.0000;
    203    1    0    0    0    0    1    1.05016128    18.4081318    220    5    1.11    0.95    107.9148    0.7153    0.0000    0.0000;
    204    2    0    0    0    0    1    1.025    19.2967384    400    5    1.05    0.95    107.0336    -0.0006    0.0000    0.0000;
    205    2    0    0    0    0    1    1.025    19.297438    400    5    1.05    0.95    107.0337    0.0000    0.0000    0.0000;
    206    1    0    0    0    0    1    1.07919797    13.8288862    220    5    1.11    0.95    109.8891    -0.5288    0.0000    0.0000;
    207    1    0    0    0    0    1    1.07920625    13.832942    220    5    1.11    0.95    109.8857    -0.5291    0.0000    0.0000;
    208    1    9.59    1    0    0    1    1.06931688    17.2717705    110    1    1.12    0.95    108.3381    0.2777    0.0000    0.0000;
    209    1    4.795    0.5    0    0    1    1.05422438    9.03629721    110    1    1.12    0.95    114.9045    0.2246    0.0000    0.0000;
    210    1    4.262    2    0    0    1    1.0711988    18.1646915    110    1    1.12    0.95    105.4624    1.1041    0.0000    0.0000;
    211    1    6.5    5.4    0    0    1    1.04215691    16.535397    110    1    1.12    0.95    108.9990    2.0787    0.0000    0.0000;
    212    1    2.877    0.6    0    0    1    1.06364046    35.9659749    110    1    1.12    0.95    98.3759    0.1886    0.0000    0.0000;
    213    1    3.197    0.3    0    0    1    1.07245753    34.3197877    110    1    1.12    0.95    98.4292    0.2878    0.0000    0.0000;
    214    2    21.711    12.3    0    0    1    1.09209    16.9336241    110    1    1.12    0.95    106.3528    0.0000    0.0000    0.0000;
    215    1    12.254    2    0    0    1    1.09343695    17.1919861    110    1    1.12    0.95    106.0357    -0.0057    0.0000    0.0000;
    216    1    6.926    2    0    0    1    1.09290739    17.1102027    110    1    1.12    0.95    106.1331    0.0014    0.0000    0.0000;