function mpc = case9241pegase_resqlim
%CASE9241PEGASE_RESQLIM

%% MATPOWER Case Format : Version 2
mpc.version = '2';

%%-----  Power Flow Data  -----%%
%% system MVA base
mpc.baseMVA = 100;

%% bus data
%	bus_i	type	Pd	Qd	Gs	Bs	area	Vm	Va	baseKV	zone	Vmax	Vmin
mpc.bus = [
	1	1	378.4	98.5	0	16.61	0	1.00759685	-36.6799192	220	6	1.1	0.9;
	2	2	0	0	0	0	0	1.031734	-8.50588561	154	1	1.1	0.9;
	3	1	151	48.8	0	4.69	0	1.01783869	-21.2074556	220	5	1.1	0.9;
	4	1	171.41	23.4	0	2.1	0	1.02001833	-6.8790342	220	5	1.1	0.9;
	5	1	45.95	14	0	13.34	0	0.9899377	-48.6274736	220	6	1.1	0.9;
	6	2	0	0	0	0	0	1.038476	-41.4948181	380	6	1.1	0.9;
	7	1	31.03	10.3	0	0.65	0	0.969062653	-33.4417801	110	21	1.1	0.9;
	8	2	0	0	0	0	0	1.023005	-17.2590885	154	1	1.1	0.9;
	9	1	14.3	2	0	1.91	0	1.03265176	-0.128325068	154	1	1.1	0.9;
	10	1	134	24.7	0	12.44	0	1.0321453	-23.9130994	220	5	1.1	0.9;
	11	1	0	0	0	0	0	0.964275149	-28.289659	150	9	1.1	0.9;
	12	1	-6.11	2	0	0.47	0	1.03451041	-23.2563019	150	9	1.1	0.9;
	13	1	-22.74	-8.32	0	6.5	0	1.01386573	-47.4258683	220	6	1.1	0.9;
	14	1	13.5	14.8	0	132.435168	0	1.13234826	-18.3199006	380	9	1.3	0.7;
	15	1	59.67	26.7	0	12.84	0	1.02159953	-49.2146631	220	4	1.1	0.9;
	16	1	30.6	4.3	0	5.15	0	1.03231395	9.59291822	154	1	1.1	0.9;
	17	1	67.68	12.1	0	2.18	0	1.01013757	7.57403926	220	3	1.1	0.9;
	18	1	0	0	0	0	0	1.02435086	19.0066604	380	3	1.1	0.9;
	19	1	25.33	7.5	0	2.39	0	1.00511093	-35.6945042	110	12	1.1	0.9;
	20	1	1.4	0.2	0	4.93	0	1.02451618	10.2086874	154	1	1.1	0.9;
	21	1	161.2	39.3	0	30.71	0	1.03025507	-21.5091112	220	5	1.1	0.9;
	22	1	0	-0	0	0.85	0	1.03026705	-18.1330612	220	5	1.1	0.9;
	23	1	19.62	7.1	0	1.15	0	1.02525165	-23.5367356	110	19	1.1	0.9;
	24	1	17.22	5.7	0	1.22	0	0.96036888	-29.7584142	110	21	1.1	0.9;
	25	2	0	0	0	0	0	1.028526	13.8227086	220	3	1.1	0.9;
	26	1	167.3	54.8	0	110.54	0	1.02958568	-3.20625494	380	5	1.1	0.9;
	27	1	-0	-0	0	14.82	0	1.08547931	14.9994035	380	13	1.1	0.9;
	28	1	0	0	0	0	0	0.994197236	-28.7858494	150	9	1.1	0.9;
	29	1	152.9	49.4	0	27.65	0	1.00381701	-13.8110987	380	5	1.1	0.9;
	30	1	-0	0	0	0.56	0	1.01954005	-26.5888459	150	9	1.1	0.9;
	31	1	69.68	43.2	0	6.3	0	0.875672378	-32.9362188	150	9	1.3	0.7;
	32	1	0	0	0	0	0	0.999402343	-43.1783028	220	4	1.1	0.9;
	33	2	0	0	0	0	0	1.026534	-38.8593767	220	4	1.1	0.9;
	34	1	13.52	4.9	0	1.8	0	1.02844699	-22.1582351	110	19	1.1	0.9;
	35	1	10.51	3.5	0	0.31	0	1.02647505	-33.9888464	110	12	1.1	0.9;
	36	1	-0	-0	0.12	15.34	0	1.04523071	-18.896177	220	19	1.1	0.9;
	37	1	9.21	2.6	0	2	0	0.972197292	-27.329104	110	18	1.1	0.9;
	38	1	42.75	12.8	0	13.3	0	1.02281723	27.4878778	220	8	1.1	0.9;
	39	2	0	0	0	0	0	1.003511	-38.4984872	150	10	1.1	0.9;
	40	1	16.02	4.54	0	0.1	0	0.996354209	-28.9719656	110	23	1.1	0.9;
	41	1	27.9	4	0	4.23	0	1.00801029	-5.31486944	154	1	1.1	0.9;
	42	1	20.82	7.9	0	26.89	0	1.04220952	-49.4047768	380	4	1.1	0.9;
	43	1	12.6	1.8	0	2.03	0	1.02873216	-12.3866424	154	1	1.1	0.9;
	44	1	-0	0	0	7.27	0	1.03959727	-21.7849012	220	5	1.1	0.9;
	45	1	10.11	3.7	0	0.81	0	1.04685974	-22.7876985	110	19	1.1	0.9;
	46	1	10.01	2.7	0	1.14	0	0.958459554	-27.1451789	110	18	1.1	0.9;
	47	1	6.31	0	0	0.67	0	0.985856421	-25.6455625	110	18	1.1	0.9;
	48	1	2.9	0.9	0	0.6	0	1.0432861	-23.7825006	110	15	1.1	0.9;
	49	2	0	0	0	0	0	1.020323	-35.3806889	220	6	1.1	0.9;
	50	1	48.8	6.9	0	8.71	0	1.02156505	-0.936239407	154	1	1.1	0.9;
	51	2	0	0	0	0	0	1.006665	-48.3737199	220	4	1.1	0.9;
	52	1	127.6	31.8	0	20.51	0	1.01757208	0.857710083	150	8	1.1	0.9;
	53	1	48.65	16.1	0	7.14	0	1.05342478	-9.07405238	220	5	1.1	0.9;
	54	1	110.5	-26.8	0	16.37	0	1.02376415	-34.7653491	220	6	1.1	0.9;
	55	1	0	-0	0	1.23	0	0.996867092	10.5610204	220	3	1.1	0.9;
	56	1	140	79.7	0	6.5	0	1.01036447	-16.0423304	220	3	1.1	0.9;
	57	1	21.6	3	0	3.54	0	1.00575502	-6.19392973	154	1	1.1	0.9;
	58	1	0	0	0	2.31	0	1.02749128	-18.5080871	380	5	1.1	0.9;
	59	1	119.2	20.7	0	3.31	0	1.01552427	-24.0029019	220	5	1.1	0.9;
	60	1	0.24	-1.66	0	0.65	0	1.02409391	-17.7240726	110	18	1.1	0.9;
	61	1	-0	0	0	58.57	0	1.08743306	47.1238211	380	3	1.1	0.9;
	62	1	-0	0	0	1.34	0	0.970171201	-25.5297519	110	18	1.1	0.9;
	63	1	187.9	110.2	0	21.25	0	1.01674281	6.36324023	380	3	1.1	0.9;
	64	1	14.92	5.5	0	1.31	0	1.05792854	-21.1484874	110	15	1.1	0.9;
	65	1	-18.52	6.1	0	0.79	0	0.890549117	-31.3323068	150	9	1.1	0.9;
	66	1	4.61	1.7	0	2.32	0	1.07591364	-16.789454	110	19	1.1	0.9;
	67	1	0	0	0.099501	82.133595	0	1.07681599	-20.4601716	380	18	1.1	0.9;
	68	1	10.81	5.1	0	1.09	0	0.930637844	-30.3207124	110	18	1.1	0.9;
	69	1	62.87	20.5	0	1.15	0	1.01673296	-0.355995501	150	8	1.1	0.9;
	70	1	0	0	0	2.64	0	1.02181272	-3.75381757	154	1	1.1	0.9;
	71	1	126.3	42.4	0	55.24	0	1.04534817	3.95992767	150	8	1.1	0.9;
	72	1	6.91	-4.6	0	5.75	0	1.00655113	-41.440143	220	4	1.1	0.9;
	73	1	15.72	5.2	0	0.11	0	1.01130037	-36.1413729	110	12	1.1	0.9;
	74	1	0	0	0	0	0	1.03300353	-26.2882158	150	9	1.1	0.9;
	75	1	38.74	6.1	0	1.17	0	1.01893626	-53.4847731	220	4	1.1	0.9;
	76	1	22.13	10.7	0	14.21	0	1.02286172	27.497721	220	8	1.1	0.9;
	77	1	-0	-0	0	0.73	0	1.0076839	-50.742292	220	4	1.1	0.9;
	78	1	0	-0	0	0.83	0	0.981821028	-18.6583998	110	18	1.1	0.9;
	79	1	138.8	136.7	0	8.76	0	1.01244214	14.7116466	380	3	1.1	0.9;
	80	2	0	0	0	0	0	1.068393	-24.0879477	220	23	1.1	0.9;
	81	1	67.76	19.18	0	1.47	0	1.01092555	62.1528786	150	1	1.1	0.9;
	82	1	22.02	5.1	0	0.69	0	1.03157325	-31.5244262	110	1	1.1	0.9;
	83	1	0	0	0	6.62	0	0.979085167	14.4847192	220	3	1.1	0.9;
	84	1	1	0.3	0	0.19	0	1.01810214	-23.773905	110	19	1.1	0.9;
	85	1	20.9	3	0	5.74	0	1.02207104	19.9420727	154	1	1.1	0.9;
	86	1	0	0	0	0.12	0	1.05107674	-21.5061482	150	9	1.1	0.9;
	87	1	21.52	5.1	0	0.5	0	1.01788934	-12.8042471	110	18	1.1	0.9;
	88	1	71.98	28.8	0	11	0	1.00674716	-36.3087235	220	6	1.1	0.9;
	89	1	0	0	0.199111	4.530599	0	0.991017643	-2.30189405	380	2	1.1	0.9;
	90	1	363.25	115.39	0	3.95	0	1.04077371	-27.6327975	220	5	1.1	0.9;
	91	1	-0	0	0	0.02	0	1.02673792	1.81384275	150	8	1.1	0.9;
	92	1	192.9	73.3	0	20.75	0	1.01894315	4.64942442	380	3	1.1	0.9;
	93	1	17.52	6.3	0	0.26	0	1.05862164	-18.8140107	110	19	1.1	0.9;
	94	1	33.14	12	0	0.65	0	1.00796291	-21.6588014	110	19	1.1	0.9;
	95	1	40.45	25	0	9.82	0	0.979513067	-27.1765726	150	9	1.1	0.9;
	96	1	193.17	53.37	0	4.58	0	1.03631114	-15.040123	220	5	1.1	0.9;
	97	1	0	0	0	9.38	0	1.05288952	3.3437897	380	1	1.1	0.9;
	98	1	90.7	25.5	0	3.11	0	1.04547435	-1.88263594	220	3	1.1	0.9;
	99	1	176.3	-58.9	0	24.77	0	1.02505099	-32.5046052	380	6	1.1	0.9;
	100	1	35.94	22.3	0	0	0	1.01901542	-26.9897758	150	9	1.1	0.9;
	101	1	-0	0	0	0.29	0	0.964011097	-28.301223	150	9	1.1	0.9;
	102	1	0	-0	0	3.77	0	1.00400816	-49.8384151	220	6	1.1	0.9;
	103	1	65.07	40.3	0	5.43	0	0.990811847	-31.1313542	150	9	1.1	0.9;
	104	1	51.36	-8.8	0	2.15	0	0.965338272	-54.7141506	220	6	1.1	0.9;
	105	1	-0	-0	0	82.55	0	1.03669825	-33.7963525	380	6	1.1	0.9;
	106	1	0	-0	0	31.19	0	1.14835664	-19.4104529	380	23	1.3	0.7;
	107	2	0	0	0	0	0	1.083135	42.7709417	380	3	1.3	0.7;
	108	1	3.8	1.3	0	0.4	0	1.00519175	-15.7186339	110	18	1.1	0.9;
	109	1	137	19.5	0	4.9	0	1.00485722	-8.38548135	154	1	1.1	0.9;
	110	1	0	0	0	0	0	0.985274072	-29.0161396	150	9	1.1	0.9;
	111	1	61.07	36	0	3.09	0	1.04855826	-23.1998677	220	11	1.1	0.9;
	112	1	0	0	0	3.24	0	1.02633673	-9.00411584	220	3	1.1	0.9;
	113	1	-0	-0	0	6.532711	0	1.02723195	-13.9490997	380	5	1.1	0.9;
	114	1	55.7	7.9	0	4.21	0	1.02650784	13.3089878	154	1	1.1	0.9;
	115	1	0	-0	0	4.21	0	1.06133236	-19.3312708	220	5	1.1	0.9;
	116	1	1.8	0.7	0	0.3	0	1.03874271	-20.2089002	110	19	1.1	0.9;
	117	1	40.04	16	0	0.52	0	1.00245406	-22.137665	110	18	1.1	0.9;
	118	1	-0	0	0	36.562834	0	1.02389813	-11.1336225	380	5	1.1	0.9;
	119	1	0	0	0	0.09	0	1.06612509	-18.1085787	150	9	1.1	0.9;
	120	1	140.6	20.1	0	13.81	0	1.01768814	-20.9908815	154	1	1.1	0.9;
	121	1	45.15	14.1	0	0.19	0	1.06117089	-22.9372205	110	15	1.1	0.9;
	122	1	-0	0	0	5.75	0	1.00209959	9.46659803	220	3	1.1	0.9;
	123	1	0	0	0	0	0	1.04120842	-20.2184223	220	11	1.1	0.9;
	124	2	0	0	0	0	0	1.077112	8.59765284	220	5	1.1	0.9;
	125	1	3.42	2.68	0	1.46	0	1.02201706	-17.760047	110	18	1.1	0.9;
	126	1	0	-0	0	2.64	0	1.00983293	7.17088466	154	1	1.1	0.9;
	127	1	-0	-0	0	4.3	0	1.02175582	-27.7297607	220	6	1.1	0.9;
	128	1	23.73	12.7	0	0.52	0	1.01471189	-15.5218194	220	5	1.1	0.9;
	129	1	121.9	7.4	0	1.34	0	1.01855298	-11.4940886	220	3	1.1	0.9;
	130	1	-0	0	0.135375	47.750675	0	1.0579515	-47.5767411	380	10	1.1	0.9;
	131	1	47.35	16.4	0	4.08	0	1.03255919	-37.2882321	110	22	1.1	0.9;
	132	1	0	-0	0	21.39	0	1.06238728	-44.2125478	380	1	1.1	0.9;
	133	1	38.14	12.5	0	6.28	0	1.02131701	2.44480599	150	8	1.1	0.9;
	134	1	54.2	7.8	0	94.9	0	1.01128902	9.72403354	400	1	1.1	0.9;
	135	1	130.6	84.9	0	4.22	0	1.02192885	-21.1948087	220	7	1.1	0.9;
	136	1	7.91	2.6	0	0.74	0	1.00648662	-33.6512642	110	12	1.1	0.9;
	137	1	42.1	74.61	0	37.58	0	1.00306403	62.4337752	150	1	1.1	0.9;
	138	1	-75.38	7.8	0	29.9	0	1.06746615	-42.2058546	380	10	1.1	0.9;
	139	1	-0	-0	0	36.92	0	1.01103072	18.0780527	380	8	1.1	0.9;
	140	1	0	0	0	4.14	0	1.02519884	18.6594565	220	8	1.1	0.9;
	141	2	0	0	0	0	0	1.050716	-0.449561465	220	13	1.1	0.9;
	142	2	0	0	0	0	0	1.042299	-30.2248422	220	6	1.1	0.9;
	143	1	0	0	0	0	0	1.02180658	5.1825914	150	8	1.1	0.9;
	144	1	0	0	0	98.53	0	1.06288652	20.0906686	380	14	1.1	0.9;
	145	1	38.34	5.6	0	7.64	0	1.03823622	-8.8729701	220	5	1.1	0.9;
	146	1	269.6	65.7	0	0	0	1.08562692	-23.4993033	120	20	1.3	0.7;
	147	2	0	0	0	0	0	1.058041	-12.5200379	220	7	1.1	0.9;
	148	1	32.34	12	0	6.1	0	1.03462479	-7.89833566	220	5	1.1	0.9;
	149	1	100.1	45.1	0	1.11	0	1.02162936	-40.2400032	380	6	1.1	0.9;
	150	2	0	0	0	0	0	1.062129	2.6532986	220	5	1.1	0.9;
	151	2	0	0	0	0	0	1.013748	-20.5638047	154	1	1.1	0.9;
	152	1	7	1	0	4.69	0	1.05032559	-2.29873216	154	1	1.1	0.9;
	153	1	-0	0	0	0.56	0	1.01137752	-29.3877352	150	7	1.1	0.9;
	154	1	0	0	0	1.29	0	1.01673609	-37.1795805	110	12	1.1	0.9;
	155	1	-0	-0	0	1.7	0	1.01983107	-26.8173723	110	21	1.1	0.9;
	156	1	40.34	25	0	1.14	0	0.952324313	-28.7406305	150	9	1.1	0.9;
	157	1	9.21	3.3	0	1.2	0	1.01465786	-10.9136249	110	19	1.1	0.9;
	158	1	166	60.3	0	0.57	0	1.01480782	7.90128837	220	3	1.1	0.9;
	159	1	0	-0	0	0.1	0	1.01234689	-26.7319198	150	9	1.1	0.9;
	160	1	79.4	11.3	0	4.92	0	1.03092657	4.33698057	154	1	1.1	0.9;
	161	1	-0	-0	0	0.16	0	1.07349861	-24.9005539	150	9	1.1	0.9;
	162	1	0	0	0	66.65	0	1.05231134	-14.923722	380	6	1.1	0.9;
	163	1	147.76	32.73	0	8.34	0	1.04065035	-10.2224545	220	5	1.1	0.9;
	164	1	0	-0	0	5.17	0	1.02055419	-0.00617853162	150	8	1.1	0.9;
	165	1	26.8	-3.7	0	51.261678	0	1.07184896	-20.9818844	380	9	1.1	0.9;
	166	2	0	0	0	0	0	1.040747	13.3797372	220	3	1.1	0.9;
	167	1	257.5	131.1	0	1.08	0	1.03944058	-3.53634957	220	3	1.1	0.9;
	168	1	16.7	2.4	0	6.09	0	1.03317659	15.5746263	154	1	1.1	0.9;
	169	1	0	0	0	1.91	0	1.030163	-26.4600984	150	9	1.1	0.9;
	170	1	-0	-0	0	2.35	0	1.01144821	36.6811144	220	1	1.1	0.9;
	171	1	100.8	13.2	0	5.24	0	1.06191938	-25.138173	220	5	1.1	0.9;
	172	1	111.7	10.96	0	4.22	0	1.00966826	-47.5102721	220	4	1.1	0.9;
	173	1	90.38	-5.05	0	8.49	0	1.0546344	16.1499719	220	13	1.1	0.9;
	174	1	370.5	-17	0	9.91	0	1.07054952	-27.6592729	220	5	1.1	0.9;
	175	1	9.91	3.2	0	0.67	0	1.00379433	-38.4111027	110	12	1.1	0.9;
	176	1	-0.69	-5.46	0	5.07	0	1.03221003	-25.5700843	150	9	1.1	0.9;
	177	1	94.9	36.2	0	16.46	0	0.969764243	-43.5653532	220	10	1.1	0.9;
	178	1	81.09	48	0	0.03	0	1.00917851	-27.2983966	150	9	1.1	0.9;
	179	1	0	0	0	0	0	1.04143712	-50.2153111	380	4	1.1	0.9;
	180	1	0	0	0	0.54	0	1.02952027	-25.5533451	110	21	1.1	0.9;
	181	1	54.96	16.9	0	3.37	0	1.04058766	-36.5063305	110	22	1.1	0.9;
	182	1	19.32	26	0	0.69	0	1.03500044	40.2354562	220	3	1.1	0.9;
	183	1	0	0	0	1.83	0	1.02727362	-26.1077494	150	9	1.1	0.9;
	184	1	-0	-0	0	2.42	0	1.03674682	-11.3205038	220	5	1.1	0.9;
	185	1	20.9	3	0	4.11	0	1.00794176	-3.7153118	154	1	1.1	0.9;
	186	1	19.92	6.6	0	0.56	0	1.00885423	-27.861405	110	21	1.1	0.9;
	187	1	57.16	2	0	1.48	0	1.00247399	-35.7576968	110	22	1.1	0.9;
	188	1	36.84	13.9	0	3.3	0	1.01429741	-19.288394	220	5	1.1	0.9;
	189	1	-15.04	-5.12	0	0.43	0	1.0012277	-25.5742208	110	18	1.1	0.9;
	190	2	0	0	0	0	0	1.025544	-18.9571469	110	19	1.1	0.9;
	191	1	0	-0	0	14.19	0	1.01621186	-35.8011033	220	6	1.1	0.9;
	192	2	0	0	0	0	0	1.048355	66.7566817	380	3	1.1	0.9;
	193	1	119.9	3.7	0	3.33	0	1.02969927	25.4969546	220	3	1.1	0.9;
	194	2	0	0	0	0	0	1.02931	13.6263532	150	8	1.1	0.9;
	195	1	73.14	21.55	0	8.52	0	1.04891154	-8.51469682	220	5	1.1	0.9;
	196	1	0	-0	0	12.48	0	1.06728315	-25.9412971	220	5	1.1	0.9;
	197	1	0	0	0	0	0	1.09661152	46.1122532	380	3	1.1	0.9;
	198	1	39.74	11.8	0	1.44	0	1.01066511	-15.7891324	220	5	1.1	0.9;
	199	1	86.8	28.4	0	1.34	0	1.01753004	1.07738259	150	8	1.1	0.9;
	200	1	22.42	2.1	0	0.19	0	1.01097736	62.3118914	150	1	1.1	0.9;
	201	1	0	0	0	0	0	1.01889972	-51.6909372	220	4	1.1	0.9;
	202	1	110.9	32.7	0	15.4	0	1.02877452	0.39081542	220	14	1.1	0.9;
	203	1	18.2	2.6	0	12.38	0	1.03485368	16.7495915	154	1	1.1	0.9;
	204	1	-0	-0	0.181549	14.690889	0	1.0546891	-21.3592991	220	18	1.1	0.9;
	205	1	46.15	18.2	0	1.29	0	1.01723902	5.76720092	150	8	1.1	0.9;
	206	1	34.04	12.3	0	0.23	0	1.06251543	-18.8499642	110	19	1.1	0.9;
	207	1	321.98	84.4	0	1.34	0	1.02067252	-12.8934102	220	5	1.1	0.9;
	208	1	33.44	10	0	1.36	0	1.04538245	-28.4775492	110	3	1.1	0.9;
	209	2	0	0	0	0	0	1.026832	-33.6790727	110	12	1.1	0.9;
	210	1	0	0	0	0	0	0.959269024	-34.2709352	150	9	1.1	0.9;
	211	1	75.28	19.2	0	1.9	0	1.02859323	14.3976646	110	8	1.1	0.9;
	212	1	95.69	24.54	0	2.85	0	1.02684847	-3.64840475	220	13	1.1	0.9;
	213	1	37.34	10.9	0	0.63	0	1.00790564	-32.4134521	110	1	1.1	0.9;
	214	2	0	0	0	0	0	1.079765	14.8397689	380	13	1.1	0.9;
	215	1	-0	0	0	4.93	0	1.00222144	-25.4110278	110	18	1.1	0.9;
	216	1	155.6	54.7	0	2.21	0	1.03690298	-24.1911695	220	5	1.1	0.9;
	217	1	105.2	0.1	0	7.36	0	1.0325918	-2.1805637	220	5	1.1	0.9;
	218	1	69.83	15.12	0	2.23	0	1.04789671	-12.5767565	220	5	1.1	0.9;
	219	2	0	0	0	0	0	1.056623	-15.2691886	380	7	1.1	0.9;
	220	2	0	0	0	0	0	1.047116	-14.502031	380	6	1.1	0.9;
	221	2	0	0	0	0	0	1.030636	-19.4872778	380	5	1.1	0.9;
	222	2	0	0	0	0	0	1.030494	65.334077	150	1	1.1	0.9;
	223	1	27.03	8.8	0	1.84	0	1.0291732	-18.8439022	110	21	1.1	0.9;
	224	1	2.6	0.5	0	0.14	0	0.999483077	-17.5064276	110	18	1.1	0.9;
	225	1	0	0	0	1.15	0	1.05827732	-19.7258647	220	5	1.1	0.9;
	226	1	14.62	4.8	0	1.02	0	1.02569659	-31.3855293	110	12	1.1	0.9;
	227	1	-0	0	0	2.55	0	1.03706779	-20.785519	220	7	1.1	0.9;
	228	1	-23.43	57.4	0	0	0	1.03975257	-6.72803134	150	2	1.1	0.9;
	229	1	426.6	93.7	0	80.94	0	1.04301372	-26.3149521	380	6	1.1	0.9;
	230	1	152.07	22.52	0	7.87	0	1.00471186	-47.1914856	220	4	1.1	0.9;
	231	1	-0.13	-1	0	0	0	1.01268435	24.2210194	110	8	1.1	0.9;
	232	1	0	0	0	0.7	0	1.01168412	-21.0875154	150	9	1.1	0.9;
	233	1	2.5	3.8	0	0.15	0	0.950504243	-28.2093761	110	18	1.1	0.9;
	234	1	16.7	2.4	0	0.87	0	1.01153936	-21.157049	154	1	1.1	0.9;
	235	1	34.04	4.4	0	1.25	0	0.988728466	-38.8376716	110	22	1.1	0.9;
	236	1	45.85	7	0	1.05	0	1.02303644	-54.538367	220	4	1.1	0.9;
	237	1	0	-0	0	30.97	0	1.03015682	39.2325873	380	3	1.1	0.9;
	238	1	0	-0	0	19.36	0	1.04271903	-47.4667949	220	6	1.1	0.9;
	239	2	0	0	0	0	0	1.018711	-23.797874	110	19	1.1	0.9;
	240	1	0	0	0	0	0	1.01331792	-27.4783064	150	9	1.1	0.9;
	241	1	-0	0	0	3.95	0	1.03561023	59.7324996	220	3	1.1	0.9;
	242	1	167.9	18.2	0	5.97	0	1.03232665	-2.05854145	220	3	1.1	0.9;
	243	1	0	-0.01	0	13.49	0	1.01732149	17.6339572	150	8	1.1	0.9;
	244	1	-0	-0	0	0.68	0	1.01831573	5.79623787	150	8	1.1	0.9;
	245	1	16.62	5.5	0	1.34	0	1.01108305	-27.7170784	110	21	1.1	0.9;
	246	2	0	0	0	0	0	1.06685	-20.625544	220	1	1.1	0.9;
	247	1	0	0	0	0.72	0	0.988126452	-21.5827197	110	18	1.1	0.9;
	248	1	0	0	0	0	0	1.03932409	12.9990871	380	13	1.1	0.9;
	249	1	-0	-0	0	26.3	0	0.998797445	-43.1774209	220	4	1.1	0.9;
	250	1	0	0	0	13.85	0	1.05170084	10.5817198	380	3	1.1	0.9;
	251	1	118.4	16.9	0	8.02	0	1.01481757	12.608421	154	1	1.1	0.9;
	252	1	-0	0	0	2.66	0	1.04150053	47.2234598	220	3	1.1	0.9;
	253	1	0	-0	0	4.06	0	1.02863616	-20.5001694	220	1	1.1	0.9;
	254	1	-0	-0	0.135493	12.74062	0	1.06759459	-25.3445872	380	21	1.1	0.9;
	255	2	0	0	0	0	0	1.059597	-13.5058506	380	16	1.1	0.9;
	256	1	0	-0	0	7.09	0	1.03602594	-35.6567607	220	6	1.1	0.9;
	257	1	113.9	24.5	0	6.72	0	1.02697282	-46.537968	220	4	1.1	0.9;
	258	1	88	12.6	0	22.25	0	1.03550086	-21.1894875	154	1	1.1	0.9;
	259	1	42.67	12.11	0	14.84	0	1.01497616	-29.4000579	150	9	1.1	0.9;
	260	1	216.8	40.5	0	5.91	0	1.02205959	-11.2458196	220	3	1.1	0.9;
	261	1	-0	0	0	1.29	0	1.05265829	-46.0286341	380	10	1.1	0.9;
	262	1	0	0	0	0	0	1.03282027	10.8403433	220	13	1.1	0.9;
	263	2	0	0	0	0	0	1.028681	3.58419698	154	1	1.1	0.9;
	264	1	38.74	9	0	0.57	0	1.01044627	-47.2438743	220	4	1.1	0.9;
	265	1	350.4	29.3	0	19.31	0	1.05433824	-25.2361754	220	11	1.1	0.9;
	266	1	0	-0	0	140.96	0	1.05392755	-42.6946544	380	4	1.1	0.9;
	267	1	103.8	2.7	0	3.33	0	1.00896552	-51.9513565	220	4	1.1	0.9;
	268	1	-0.13	-1	0	0	0	1.0403346	27.6401732	220	8	1.1	0.9;
	269	1	0	-0	0	0.66	0	1.01632891	-38.0814319	110	22	1.1	0.9;
	270	1	-0	0	0	6.34	0	1.03838226	67.26472	380	1	1.1	0.9;
	271	1	96.7	26.8	0	0	0	1.03413029	-7.11644629	150	2	1.1	0.9;
	272	1	0	0	0	19.54	0	1.05100824	-28.6042421	150	9	1.1	0.9;
	273	1	-0	-0	0	14.87	0	1.05230242	-24.755247	220	23	1.1	0.9;
	274	1	19.02	6	0	0.25	0	1.01619145	-24.9312113	110	21	1.1	0.9;
	275	1	102.1	25.3	0	1.11	0	1.01484055	1.94861561	150	8	1.1	0.9;
	276	1	-0	0	0	2.44	0	1.0461508	64.3586483	220	3	1.1	0.9;
	277	1	0	0	0	0	0	1.01148961	-25.8508358	150	9	1.1	0.9;
	278	2	0	0	0	0	0	1.014153	-26.9882604	110	18	1.1	0.9;
	279	1	8.31	3	0	0.99	0	1.00139676	-23.4595117	110	19	1.1	0.9;
	280	1	119.6	29.6	0	5.34	0	1.0303534	-10.9262872	220	5	1.1	0.9;
	281	1	-0	-0	0	18.07	0	1.03450874	13.8482219	380	8	1.1	0.9;
	282	2	0	0	0	0	0	1.077605	-10.1657568	380	18	1.1	0.9;
	283	1	27.33	11.9	0	1.17	0	1.02964224	-11.5619627	220	5	1.1	0.9;
	284	1	191.2	-3.4	0	19.21	0	1.02109529	-49.2652715	220	4	1.1	0.9;
	285	1	0	0	0.029916	18.291787	0	1.03302243	67.1295381	380	1	1.1	0.9;
	286	1	101.6	14.5	0	1.94	0	1.01691861	7.63580253	154	1	1.1	0.9;
	287	1	177.1	66.9	0	71.03	0	1.05850378	-14.2257984	380	16	1.1	0.9;
	288	1	0	0	0	0.3	0	1.06468115	-18.0265302	150	9	1.1	0.9;
	289	2	0	0	0	0	0	1.046783	-30.3613622	220	6	1.1	0.9;
	290	1	53.46	18.7	0	1.64	0	1.02689338	-19.4831784	220	20	1.1	0.9;
	291	1	0	-0	0	12.73	0	1.03786257	4.95843224	220	14	1.1	0.9;
	292	1	13.82	1.4	0	0.7	0	1.04041239	-14.5619053	220	5	1.1	0.9;
	293	1	85.1	67	0	0.18	0	1.06746313	-19.2134453	150	9	1.1	0.9;
	294	2	0	0	0	0	0	1.003375	-0.187051337	400	1	1.1	0.9;
	295	1	0	0	0	0.08	0	1.01920867	-28.1179468	220	6	1.1	0.9;
	296	1	189.3	76.7	0	3.24	0	0.991362714	27.5019775	220	3	1.1	0.9;
	297	1	23.73	9.4	0	1.45	0	1.03204452	5.23526072	150	8	1.1	0.9;
	298	1	10.01	-21	0	8.59	0	1.04220067	-28.4624762	220	11	1.1	0.9;
	299	2	0	0	0	0	0	1.039248	-46.6642069	380	4	1.1	0.9;
	300	1	0	0	0	1.05	0	1.01884336	-19.4887985	150	9	1.1	0.9;
	301	1	-14.85	-4.95	0	0.37	0	1.01672579	-21.8769377	110	18	1.1	0.9;
	302	1	20.9	3	0	2.65	0	1.02456801	11.253792	154	1	1.1	0.9;
	303	1	431.7	121.6	0	1.14	0	1.00855092	-26.2336304	220	21	1.1	0.9;
	304	1	2.2	0.5	0	0.21	0	0.989541366	-54.7333021	150	10	1.1	0.9;
	305	1	103	12	0	0.63	0	1.06498153	-32.4415562	220	5	1.1	0.9;
	306	1	-0	0	0	4.76	0	1.02310586	-18.3201963	220	5	1.1	0.9;
	307	1	0	0	0	25.85	0	1.07818147	-21.8990204	380	1	1.1	0.9;
	308	1	0	0	0	0	0	0.825486794	-37.0046856	150	9	1.3	0.7;
	309	1	0	0	0	0	0	0.98821751	13.965287	220	3	1.1	0.9;
	310	2	0	0	0	0	0	1.155322	-18.2618503	380	9	1.3	0.7;
	311	1	42.05	17.2	0	1.31	0	1.01877177	-0.563625738	150	8	1.1	0.9;
	312	1	-0.16	-2.91	0	0.43	0	1.06185845	12.2518496	110	8	1.1	0.9;
	313	2	0	0	0	0	0	1.025259	9.62992158	154	1	1.1	0.9;
	314	1	163.1	46.3	0	10.6	0	0.997590439	-15.6625694	220	5	1.1	0.9;
	315	1	-0	-0	0	2.13	0	1.02427771	-36.7326458	220	10	1.1	0.9;
	316	1	0	-0	0	2.81	0	1.03550282	-4.27206605	220	3	1.1	0.9;
	317	1	-0	-0	0.045946	-1.82203	0	1.01737571	4.63192333	380	2	1.1	0.9;
	318	1	-0	-0	0	1.05	0	0.994803689	-28.0883257	150	9	1.1	0.9;
	319	1	153.3	21.8	0	18.25	0	1.01889715	-18.8548043	154	1	1.1	0.9;
	320	2	0	0	0	0	0	1.013336	12.2647872	400	1	1.1	0.9;
	321	1	67.17	-23.9	0	0.93	0	1.04710768	64.1326716	220	3	1.1	0.9;
	322	1	303.8	85.4	0	3.63	0	0.960281902	-45.1048934	220	10	1.1	0.9;
	323	1	-0	-0	0	0	0	1.02149479	7.78312853	400	1	1.1	0.9;
	324	2	0	0	0	0	0	1.063285	53.1515108	380	3	1.1	0.9;
	325	1	0	0	0	0	0	1.00854315	0.0181608915	154	1	1.1	0.9;
	326	1	0	0	0	0	0	1.04044707	27.6880776	220	8	1.1	0.9;
	327	1	0	0	0	12.29	0	1.02110364	-11.9283598	380	3	1.1	0.9;
	328	2	0	0	0	0	0	1.017618	25.1986261	220	13	1.1	0.9;
	329	1	24.23	7.1	0	1.64	0	1.01958252	-26.5158795	110	21	1.1	0.9;
	330	1	108.6	2.6	0	31.8	0	1.05317849	11.1966017	380	3	1.1	0.9;
	331	1	4	2.4	0	0.03	0	0.94832246	-29.1193167	150	9	1.1	0.9;
	332	1	30.03	10.9	0	1.45	0	1.03246881	-23.4178091	110	19	1.1	0.9;
	333	1	524.5	43	0	6.85	0	1.00732001	-42.2285553	220	5	1.1	0.9;
	334	1	129.9	18.5	0	0.38	0	1.0215544	-4.58505346	154	1	1.1	0.9;
	335	1	-0	0	0	1.92	0	0.954668586	-28.9284459	110	18	1.1	0.9;
	336	1	4.4	0	0	0.51	0	1.00793856	-17.9692864	110	18	1.1	0.9;
	337	1	9.22	1.2	0	0.8	0	1.07440714	-18.3231285	110	19	1.1	0.9;
	338	2	0	0	0	0	0	1.046957	-6.06813388	220	5	1.1	0.9;
	339	1	-0	0	0	0.14	0	1.03412535	-34.1453089	220	6	1.1	0.9;
	340	1	186.6	56.6	0	30.24	0	1.06648812	-20.3529935	380	20	1.1	0.9;
	341	1	-0	-0	0	0.81	0	1.01715563	-26.6390244	110	21	1.1	0.9;
	342	1	35.41	20.3	0	10.07	0	1.00860006	-31.7974602	220	6	1.1	0.9;
	343	1	3.2	1.2	0	0.69	0	1.04381638	-20.0635304	110	19	1.1	0.9;
	344	1	372.8	147.5	0	27.73	0	1.02782863	-0.819892752	150	8	1.1	0.9;
	345	1	0	0	0.080094	-0.240282	0	1.03820881	-30.3169949	220	11	1.1	0.9;
	346	1	197.5	48.3	0	0.71	0	1.03729517	-20.8764828	220	5	1.1	0.9;
	347	2	0	0	0	0	0	1.020949	-0.935097537	154	1	1.1	0.9;
	348	2	0	0	0	0	0	1.057894	-24.3672354	380	6	1.1	0.9;
	349	1	-0	0	0	15.15	0	1.04582627	9.14590896	150	8	1.1	0.9;
	350	1	110.4	26.2	0	5.62	0	1.03828943	-23.8925752	220	5	1.1	0.9;
	351	1	-0.15	-1.93	0	0	0	1.02366568	19.4194134	220	8	1.1	0.9;
	352	2	0	0	0	0	0	1.048835	1.01145998	380	5	1.1	0.9;
	353	1	-0	-0	0	14.6	0	1.05336666	-26.942766	220	12	1.1	0.9;
	354	1	-0	0	0	8.67	0	1.04731602	-15.7125284	380	1	1.1	0.9;
	355	1	-4.86	-2.15	0	0.31	0	0.994794242	-22.7190879	110	18	1.1	0.9;
	356	1	141.1	2.1	0	4.78	0	1.0469978	-17.3348768	220	7	1.1	0.9;
	357	1	52.96	32.8	0	14.14	0	1.01403413	-29.7249234	150	9	1.1	0.9;
	358	1	13.9	1.9	0	0.62	0	1.03285781	12.0244023	154	1	1.1	0.9;
	359	1	0	0	0	2.37	0	1.04290266	-13.3972675	220	1	1.1	0.9;
	360	1	35.54	11.5	0	3.65	0	1.05496494	11.9677811	110	8	1.1	0.9;
	361	2	0	0	0	0	0	1.05949	17.9017404	380	13	1.3	0.7;
	362	1	48.92	14.52	0	2.85	0	1.0127126	62.5710914	150	1	1.1	0.9;
	363	1	-0	0	0	26.52	0	1.0849211	-33.7823151	150	9	1.3	0.7;
	364	1	10.01	4	0	8.11	0	1.00923575	-35.6946649	220	6	1.1	0.9;
	365	1	0	-0	0	0.82	0	1.01107983	-19.6648636	150	9	1.1	0.9;
	366	1	0	0	0	0	0	1.00847772	-2.83519826	400	1	1.1	0.9;
	367	1	65.17	-51.5	0	4.85	0	1.06439705	-23.1846743	220	5	1.1	0.9;
	368	1	-0	0	0	7.11	0	1.01698123	-32.3850561	220	6	1.1	0.9;
	369	1	-0	0	0	3.78	0	1.04462321	14.2617063	220	8	1.1	0.9;
	370	1	56.76	23.2	0	0.49	0	1.01611009	-0.749305272	150	8	1.1	0.9;
	371	1	0	0	0	11.44	0	1.04060975	-17.1733648	154	1	1.1	0.9;
	372	2	0	0	0	0	0	1.074991	10.0740525	380	14	1.1	0.9;
	373	1	-0	0	0	0.16	0	0.97701595	-27.2323267	150	9	1.1	0.9;
	374	1	-0	-0	0	2.27	0	1.03502526	-21.3778368	154	1	1.1	0.9;
	375	1	-0	0	0	1.61	0	1.01305135	53.1897465	220	3	1.1	0.9;
	376	1	0.01	0	0	35.09	0	1.03098495	-32.0331291	380	6	1.1	0.9;
	377	1	-0.18	-1	0	0	0	1.02141436	10.9682725	150	8	1.1	0.9;
	378	1	221.35	51.8	0	8.81	0	1.01729581	-6.40501991	220	13	1.1	0.9;
	379	1	23.83	7.9	0	0.72	0	0.995603397	-28.920993	110	21	1.1	0.9;
	380	1	-95.71	-2.8	0	7.25	0	1.00125871	-33.5116951	220	10	1.1	0.9;
	381	1	44.05	0	0	0	0	0.949598169	-33.7199265	150	7	1.1	0.9;
	382	2	0	0	0	0	0	1.060853	-22.7304123	220	7	1.1	0.9;
	383	1	19.02	11.5	0	0	0	0.990711753	-27.6604536	150	9	1.1	0.9;
	384	1	0	-0	0	0.3	0	1.00324916	-26.8826525	150	9	1.1	0.9;
	385	1	-0	-0	0	105.84	0	1.03938611	-50.0982904	380	4	1.1	0.9;
	386	1	0	-0	0	28.09	0	1.06153301	22.12443	380	3	1.1	0.9;
	387	1	-0.19	-4.38	0	0	0	1.04360968	7.25836155	150	8	1.1	0.9;
	388	1	0	-0	0	7.15	0	0.987808855	8.15135771	220	3	1.1	0.9;
	389	2	0	0	0	0	0	1.017731	-41.5309195	150	10	1.1	0.9;
	390	1	27.93	10.1	0	0.43	0	1.07126638	-17.2885459	110	19	1.1	0.9;
	391	1	34.94	21.6	0	0.18	0	0.979130047	-23.9943048	150	9	1.1	0.9;
	392	1	134.1	34.2	0	0.75	0	1.01156504	-0.444506472	150	8	1.1	0.9;
	393	1	17.72	5.9	0	0.32	0	1.06213826	-24.3486008	220	21	1.1	0.9;
	394	2	0	0	0	0	0	1.063147	43.0986165	380	3	1.1	0.9;
	395	1	-0	-0	0	7.85	0	1.03298696	15.1484788	380	8	1.1	0.9;
	396	1	0	0	0	0	0	0.872506558	-33.4397678	150	9	1.3	0.7;
	397	1	77.79	-40.8	0	12.06	0	1.0339985	-12.9575524	220	3	1.1	0.9;
	398	1	11.91	3.8	0	0.46	0	0.977239685	-19.0586115	110	18	1.1	0.9;
	399	1	5.01	2	0	0.13	0	1.01386581	-35.3632402	220	6	1.1	0.9;
	400	1	-19.66	-10.83	0	0.06	0	1.00769489	-27.9387042	110	18	1.1	0.9;
	401	1	56.5	36.29	0	3.08	0	1.03497035	-14.2677547	220	5	1.1	0.9;
	402	1	-0	-0	0	16.38	0	1.00836678	-35.347296	220	6	1.1	0.9;
	403	1	-0	-0	0.090774	7.330444	0	1.06167121	-26.5547298	220	18	1.1	0.9;
	404	1	3.81	0.24	0	0.23	0	1.01428132	-24.1379666	110	18	1.1	0.9;
	405	1	254.7	79.4	0	9.43	0	1.01742315	-45.9415501	380	6	1.1	0.9;
	406	2	0	0	0	0	0	1.012399	-33.4057691	110	12	1.1	0.9;
	407	1	69.5	9.9	0	98.63	0	1.0072168	11.3252932	400	1	1.1	0.9;
	408	1	129.1	7.4	0	0.04	0	1.03514948	-11.0617698	220	5	1.1	0.9;
	409	2	0	0	0	0	0	1.032831	-2.91896985	154	1	1.1	0.9;
	410	1	170.89	50.38	0	6.44	0	1.02022085	-26.8522519	220	5	1.1	0.9;
	411	2	0	0	0	0	0	1.03248	-35.8003763	110	22	1.1	0.9;
	412	1	26.4	3.8	0	4.65	0	1.022685	17.184161	154	1	1.1	0.9;
	413	2	0	0	0	0	0	1.048421	-6.00176096	220	5	1.1	0.9;
	414	1	20.52	10.3	0	0.04	0	1.01731367	-29.0365934	150	9	1.1	0.9;
	415	1	4.71	0.7	0	11.39	0	1.02391231	-52.5151993	220	4	1.1	0.9;
	416	1	70.68	13.5	0	6.96	0	1.0450016	-6.22813337	220	5	1.1	0.9;
	417	1	187.19	1.8	0	20.47	0	1.0209083	-10.9391236	220	3	1.1	0.9;
	418	1	24.43	8.7	0	0.17	0	1.02829864	-24.5810568	110	15	1.1	0.9;
	419	1	8.81	3.2	0	1.12	0	0.993003133	-20.6004707	110	19	1.1	0.9;
	420	1	0	0	0	0	0	1.04775842	18.443555	380	8	1.1	0.9;
	421	1	33.74	20.9	0	1.1	0	0.985274072	-29.0161396	150	9	1.1	0.9;
	422	1	35.84	12.5	0	0.26	0	0.997970774	-24.3931812	110	19	1.1	0.9;
	423	2	0	0	0	0	0	1.030299	-17.9739148	154	1	1.1	0.9;
	424	2	0	0	0	0	0	1.051241	37.7718801	380	3	1.1	0.9;
	425	1	-0	0	0	2.72	0	1.02213751	7.51014962	380	1	1.1	0.9;
	426	1	123.1	6.5	0	3.25	0	1.03830028	-18.2160039	220	5	1.1	0.9;
	427	1	-0	0	0	1.24	0	1.07492385	-36.2699282	380	1	1.1	0.9;
	428	1	0.1	0	0	0.57	0	0.989748563	-19.6008761	110	18	1.1	0.9;
	429	1	26.93	-22.4	0	4.95	0	1.01282216	-49.1321697	220	4	1.1	0.9;
	430	1	29.03	9	0	0.56	0	1.04421738	-24.0458104	110	21	1.1	0.9;
	431	1	188.42	106.93	0	4.89	0	1.03184545	8.30308771	220	13	1.1	0.9;
	432	1	-0	-0	0	68.517663	0	1.04103289	2.6096024	380	5	1.1	0.9;
	433	1	0	0	0	0	0	1.02288312	20.9063351	380	3	1.1	0.9;
	434	1	0	0	0	0	0	1.03702692	5.58193643	154	1	1.1	0.9;
	435	1	33.14	11.6	0	0.22	0	1.01093426	-23.5629411	110	19	1.1	0.9;
	436	1	18.3	8.2	0	35.421268	0	1.11717274	-18.589336	380	9	1.3	0.7;
	437	1	69.08	24	0	1	0	1.01692566	-35.1094336	220	6	1.1	0.9;
	438	2	0	0	0	0	0	1.038705	60.3516345	220	3	1.1	0.9;
	439	2	0	0	0	0	0	1.072491	62.0331189	220	3	1.1	0.9;
	440	2	0	0	0	0	0	1.028093	-36.8913582	220	4	1.1	0.9;
	441	1	-0	0	0.199768	27.888516	0	1.03213536	-52.6921695	380	10	1.1	0.9;
	442	1	0	0	0	0	0	1.01145038	-46.8533718	220	4	1.1	0.9;
	443	1	-12.61	4.1	0	1.83	0	0.976005198	-27.1677813	150	9	1.1	0.9;
	444	1	0	-0	0	2.45	0	1.03034703	-11.6170522	220	5	1.1	0.9;
	445	1	36.74	10.3	0	8.1	0	1.01948175	-45.2981854	220	4	1.1	0.9;
	446	1	100.53	43.37	0	0	0	1.01814725	-23.8888479	110	24	1.1	0.9;
	447	2	0	0	0	0	0	1.035215	-7.71551664	110	18	1.1	0.9;
	448	1	0	0	0	0	0	0.941088354	-29.5732251	150	9	1.1	0.9;
	449	1	0	0	0	29.42	0	1.01647406	-7.89037344	380	5	1.1	0.9;
	450	1	42.04	43	0	0.02	0	1.06723777	-23.6400852	150	9	1.1	0.9;
	451	1	-0	-0	0	22.71	0	1.06239402	23.4994147	380	1	1.1	0.9;
	452	2	0	0	0	0	0	1.013382	-38.5891509	110	22	1.1	0.9;
	453	2	0	0	0	0	0	1.024712	-7.93508176	380	5	1.1	0.9;
	454	1	23.7	3.4	0	8.13	0	1.0402535	12.4878906	154	1	1.1	0.9;
	455	1	274.32	5.66	0	13.24	0	1.03606439	-30.8725653	220	5	1.1	0.9;
	456	2	0	0	0	0	0	0.999847	-25.6556148	110	18	1.1	0.9;
	457	1	1.8	0.7	0	0.18	0	0.99341508	-15.4021886	110	19	1.1	0.9;
	458	1	0	0	0.190956	35.262077	0	1.02420862	-23.9459922	380	11	1.1	0.9;
	459	1	97	40.3	0	16.79	0	1.00358778	-6.30405125	220	3	1.1	0.9;
	460	1	0	-0	0	0.88	0	0.997300166	-23.925563	110	18	1.1	0.9;
	461	1	0	0	0	0	0	1.00833649	-30.8598028	150	9	1.1	0.9;
	462	1	0	0	0	0	0	1.00036459	-27.8861474	150	9	1.1	0.9;
	463	1	24.33	7.6	0	1.18	0	0.985069251	-18.1044883	110	18	1.1	0.9;
	464	1	44.75	0.9	0	6.67	0	1.04854383	-13.8186815	220	7	1.1	0.9;
	465	1	-0	0	0.11	2.57	0	1.02661448	-24.809035	220	21	1.1	0.9;
	466	1	0	0	0	0	0	1.02119575	-26.3799892	150	9	1.1	0.9;
	467	1	40.5	5.7	0	3.9	0	1.02318403	-5.84397421	154	1	1.1	0.9;
	468	1	9.01	6.8	0	0.44	0	0.96752025	-26.4570317	110	18	1.1	0.9;
	469	1	81.09	48	0	0.03	0	1.01048618	-27.1489848	150	9	1.1	0.9;
	470	1	-0	0	0	0.43	0	1.03664311	-25.1770064	150	9	1.1	0.9;
	471	1	0	0	0	1.47	0	1.02494966	-21.6217533	220	6	1.1	0.9;
	472	1	336.2	131.6	0	64.01	0	1.04793091	7.96890109	150	8	1.1	0.9;
	473	1	-22.95	-3.72	0	14.34	0	1.02256474	-46.4983675	220	4	1.1	0.9;
	474	1	-0	0	0	0.97	0	1.02204652	-36.2153304	110	1	1.1	0.9;
	475	1	0	0	0	9.41	0	1.05045603	50.357659	380	3	1.1	0.9;
	476	1	67.3	94.8	0	7.96	0	0.991696839	7.01184961	220	3	1.1	0.9;
	477	1	0	0	0	70.37	0	1.04226178	-42.66599	380	4	1.1	0.9;
	478	1	0	-0	0	33.23	0	1.08412059	46.5876544	380	3	1.1	0.9;
	479	1	16.62	3.1	0	1.14	0	1.00693284	-15.8006914	110	18	1.1	0.9;
	480	1	5.81	1.1	0	4.02	0	1.0455187	-7.46628497	110	19	1.1	0.9;
	481	1	-0	0	0	17.44	0	1.02095759	-48.7581477	220	4	1.1	0.9;
	482	1	0	0	0	1.05	0	0.984089347	-23.093387	110	18	1.1	0.9;
	483	1	57.26	15.6	0	3.43	0	1.01721598	-50.3926411	220	4	1.1	0.9;
	484	2	0	0	0	0	0	1.054091	55.8406435	220	3	1.1	0.9;
	485	1	0	0	0	4.9	0	1.0246495	-30.0813819	380	6	1.1	0.9;
	486	1	7.01	2	0	0.44	0	1.01547786	4.08158426	150	8	1.1	0.9;
	487	1	87.8	12.5	0	0.38	0	1.01458824	-0.808357401	154	1	1.1	0.9;
	488	1	6.61	2.92	0	1.17	0	1.0363954	4.15662439	220	14	1.1	0.9;