function mpc = case3375wp_res
%CASE3375WP_RES

%% MATPOWER Case Format : Version 2
mpc.version = '2';

%%-----  Power Flow Data  -----%%
%% system MVA base
mpc.baseMVA = 100;

%% bus data
%    bus_i    type    Pd    Qd    Gs    Bs    area    Vm    Va    baseKV    zone    Vmax    Vmin
mpc.bus = [
    10000    1    0    0    0    0    0    1.04686467    -10.4468166    400    0    1.05    0.95;
    10001    1    0    0    0    0    0    1.04831196    -14.5202065    400    0    1.05    0.95;
    10002    1    0    0    0    0    0    1.07249557    -16.4408226    220    0    1.11    0.95;
    10003    1    0    0    0    0    0    1.04519533    -17.4228481    400    0    1.05    0.95;
    10004    1    0    0    0    0    0    1.04393893    -13.5509442    400    0    1.05    0.95;
    10005    1    0    0    0    0    0    1.04431576    -15.9847311    400    0    1.05    0.95;
    10006    1    0    0    0    0    0    1.0406978    -9.32720128    400    0    1.05    0.95;
    10007    1    0    0    0    0    0    1.07321161    -15.3747968    220    0    1.11    0.95;
    10008    1    0    0    0    0    0    1.07070549    -17.5636161    220    0    1.11    0.95;
    10009    1    0    0    0    0    0    1.04432273    -16.7686022    400    0    1.05    0.95;
    10010    1    0    0    0    0    0    1.04909524    -11.5721738    400    0    1.05    0.95;
    10011    1    0    0    0    0    0    1.04467916    -18.1028024    400    0    1.05    0.95;
    10012    1    0    0    0    0    0    1.04467916    -18.1028024    400    0    1.05    0.95;
    10013    1    0    0    0    0    0    1.04557964    -11.7780507    400    0    1.05    0.95;
    10014    1    0    0    0    0    0    1.04578162    -11.8095498    400    0    1.05    0.95;
    10015    1    0    0    0    0    0    1.04471836    -17.7074461    400    0    1.05    0.95;
    10016    1    0    0    0    0    0    1.04576645    -11.6970702    400    0    1.05    0.95;
    10017    1    0    0    0    0    0    1.04570153    -11.7011356    400    0    1.05    0.95;
    10018    1    0    0    0    0    0    1.04568293    -11.6938886    400    0    1.05    0.95;
    10019    1    0    0    0    0    0    1.04578696    -11.8095815    400    0    1.05    0.95;
    10020    1    0    0    0    0    0    1.0499533    -13.5498027    400    0    1.05    0.95;
    10021    1    0    0    0    0    0    1.0762862    -16.1038792    220    0    1.11    0.95;
    10022    1    0    0    0    0    0    1.07480392    -16.5163359    220    0    1.11    0.95;
    10023    1    0    0    0    0    0    1.04573414    -11.2031324    400    0    1.05    0.95;
    10024    1    0    0    0    0    0    1.04548203    -11.3025859    400    0    1.05    0.95;
    10025    1    0    0    0    0    0    1.04564226    -11.2497194    400    0    1.05    0.95;
    10026    1    0    0    0    0    0    1.04126646    -7.44617921    400    0    1.05    0.95;
    10027    1    0    0    0    0    0    1.04166646    -7.17329544    400    0    1.05    0.95;
    10028    1    0    0    0    0    0    1.04177778    -6.97583815    400    0    1.05    0.95;
    10029    1    0    0    0    0    0    1.04910008    -11.0243333    400    0    1.05    0.95;
    10030    1    0    0    0    0    0    1.04909076    -11.0191366    400    0    1.05    0.95;
    10031    1    0    0    0    0    0    1.08680535    -11.0492854    220    0    1.11    0.95;
    10032    1    0    0    0    0    0    1.04131406    -7.46168572    400    0    1.05    0.95;
    10033    1    0    0    0    0    0    1.04130065    -7.46158485    400    0    1.05    0.95;
    10034    1    0    0    0    0    0    1.04252911    -13.679038    400    0    1.05    0.95;
    10035    1    0    0    0    0    0    1.07250122    -11.8156764    220    0    1.11    0.95;
    10036    1    0    0    0    0    0    1.07256318    -11.8233756    220    0    1.11    0.95;
    10037    1    0    0    0    0    0    1.041298    -7.55965219    400    0    1.05    0.95;
    10038    1    0    0    0    0    0    1.04134363    -7.56776121    400    0    1.05    0.95;
    10039    1    0    0    0    0    0    1.04177105    -7.60539125    400    0    1.05    0.95;
    10040    1    0    0    0    0    0    1.04506167    -12.6533268    400    0    1.05    0.95;
    10041    1    0    0    0    0    0    1.04915521    -11.1579006    400    0    1.05    0.95;
    10042    1    0    0    0    0    0    1.04489225    -18.3697732    400    0    1.05    0.95;
    10043    1    0    0    0    0    0    1.06595557    -13.904162    220    0    1.11    0.95;
    10044    1    0    0    0    0    0    1.07304594    -13.068445    220    0    1.11    0.95;
    10045    1    0    0    0    0    0    1.06738076    -18.4249707    220    0    1.11    0.95;
    10046    1    0    0    0    0    0    1.07476346    -16.5158447    220    0    1.11    0.95;
    10047    1    0    0    0    0    0    1.04345332    -19.2482099    400    0    1.05    0.95;
    10048    1    0    0    0    0    0    1.04593165    -10.9416741    400    0    1.05    0.95;
    10049    1    0    0    0    0    0    1.04881096    -11.4433253    400    0    1.05    0.95;
    10050    1    0    0    0    0    0    1.04915521    -11.1579006    400    0    1.05    0.95;
    10051    1    0    0    0    0    0    1.06434644    -18.1745233    220    0    1.11    0.95;
    10052    1    0    0    0    0    0    1.04278672    -16.0115778    400    0    1.05    0.95;
    10053    1    0    0    0    0    0    1.08849342    -10.4906129    220    0    1.11    0.95;
    10054    1    0    0    0    0    0    1.08849342    -10.4906129    220    0    1.11    0.95;
    10055    1    0    0    0    0    0    1.08022337    -14.410305    220    0    1.11    0.95;
    10056    1    0    0    0    0    0    1.04167335    -9.58175415    400    0    1.05    0.95;
    10057    1    0    0    0    0    0    1.03958097    -8.5542705    400    0    1.05    0.95;
    10058    1    0    0    0    0    0    1.05990742    -16.3646399    220    0    1.11    0.95;
    10059    1    0    0    0    0    0    1.05006192    -15.442852    400    0    1.05    0.95;
    10060    1    0    0    0    0    0    1.04132082    -7.56370679    400    0    1.05    0.95;
    10061    1    0    0    0    0    0    1.04167335    -9.58175415    400    0    1.05    0.95;
    10062    1    0    0    0    0    0    1.04295472    -15.2377812    400    0    1.05    0.95;
    10063    1    0    0    0    0    0    1.04577853    -11.8095375    400    0    1.05    0.95;
    10064    1    0    0    0    0    0    1.06573625    -15.889854    220    0    1.11    0.95;
    10065    1    0    0    0    0    0    1.04672212    -13.1287292    400    0    1.05    0.95;
    10066    1    0    0    0    0    0    1.04877725    -11.8398293    400    0    1.05    0.95;
    10067    1    0    0    0    0    0    1.06756127    -14.9943079    220    0    1.11    0.95;
    10068    1    0    0    0    0    0    1.04901695    -12.7314166    400    0    1.05    0.95;
    10069    1    0    0    0    0    0    1.06641244    -18.7498498    220    0    1.11    0.95;
    10070    1    0    0    0    0    0    1.04463341    -18.102553    400    0    1.05    0.95;
    10071    2    16    8    0    0    0    1.07617    -14.7553984    220    0    1.11    0.95;
    10072    1    0    0    0    0    0    1.08594938    -11.2249372    220    0    1.11    0.95;
    10073    1    0    0    0    0    1    1.07467419    -12.8140788    220    0    1.11    0.95;
    10074    1    0    0    0    0    0    1.07381738    -12.7899296    220    0    1.11    0.95;
    10075    1    0    0    0    0    0    1.07253654    -13.6222277    220    0    1.11    0.95;
    10076    1    0    0    0    0    0    1.0454708    -11.3025236    400    0    1.05    0.95;
    10077    1    0    0    0    0    0    1.0454708    -11.3025236    400    0    1.05    0.95;
    10078    1    305.5    -14    0    0    0    1.03443586    -7.60711858    400    0    1.05    0.95;
    10079    2    -1529.6    4542.9    0    0    0    1.01319    0.63522848    400    0    1.05    0.95;
    10080    2    -159.1    -181    0    0    0    1.02855    -4.0676823    400    0    1.05    0.95;
    10081    1    -1078.3    -374.1    0    0    0    1.03449522    -0.185275336    400    0    1.05    0.95;
    10082    1    943.2    310.2    0    0    0    1.00366146    -3.76202591    400    0    1.05    0.95;
    10083    1    97    26    0    0    0    1.04141355    -4.50270369    400    0    1.05    0.95;
    10084    1    0.6    160    0    0    0    1.04228081    -4.30716692    400    0    1.05    0.95;
    10085    1    161.6    183.6    0    0    0    1.04124342    -4.45722317    400    0    1.05    0.95;
    10086    1    288.6    221.6    0    0    0    1.04123201    -4.45987444    400    0    1.05    0.95;
    10087    1    0    0    0    0    0    1.04329442    -4.18641273    400    0    1.05    0.95;
    10088    1    0    0    0    0    0    1.08924144    -4.6180713    220    0    1.11    0.95;
    10089    1    0    0    0    0    0    1.08699967    -4.74279305    220    0    1.11    0.95;
    10090    2    274.4    279.6    0    0    0    1.04139    -4.50675082    400    0    1.05    0.95;
    10091    1    94.2    111.8    0    0    0    1.04083016    -4.56261223    400    0    1.05    0.95;
    10092    1    0    0    0    0    0    1.08536708    -4.83198078    220    0    1.11    0.95;
    10093    1    0    0    0    0    0    1.08802277    -4.68722351    220    0    1.11    0.95;
    10094    2    0    0    0    0    0    1.03526    -3.81386537    400    0    1.05    0.95;
    10095    2    4.4    -2590.1    0    0    0    1.02969    -5.19487095    400    0    1.05    0.95;
    10096    1    488    79.1    0    0    0    1.02127167    -5.4082739    400    0    1.05    0.95;
    10097    1    601    147.9    0    0    0    1.02468226    -5.31606883    400    0    1.05    0.95;
    10098    1    527    265.1    0    0    0    1.02591624    -4.59868795    400    0    1.05    0.95;
    10099    1    0    0    0    0    0    1.00481214    -1.73518623    400    0    1.05    0.95;
    10100    2    0    0    0    0    0    1.04073    -0.18535942    400    0    1.05    0.95;
    10101    1    0    0    0    0    0    1.04149051    -16.2044882    220    0    1.11    0.95;
    10102    1    120    25    0    0    0    1.06283079    -9.01652653    220    0    1.11    0.95;
    10103    1    0    0    0    0    0    1.03973344    -2.56139247    400    0    1.05    0.95;
    10104    2    200.2    48.7    0    0    0    1.04409    -1.44577495    400    0    1.05    0.95;
    10105    1    0    0    0    0    0    1.06456048    -7.15890774    220    0    1.11    0.95;
    10106    1    0    0    0    0    0    1.0343911    -3.85880773    400    0    1.05    0.95;
    10107    1    0    0    0    0    0    1.04250276    -2.1890061    400    0    1.05    0.95;
    10108    1    0    0    0    0    0    1.04309373    -1.8727137    400    0    1.05    0.95;
    10109    1    0    0    0    0    0    1.04246264    -2.11245738    400    0    1.05    0.95;
    10110    1    0    0    0    0    0    1.0430784    -1.79152367    400    0    1.05    0.95;
    10111    1    0    0    0    0    0    1.02626484    -1.09273196    400    0    1.05    0.95;
    10112    1    0    0    0    0    0    1.1080879    -4.32617937    220    0    1.11    0.95;
    10113    1    0    0    0    0    0    1.01803981    -1.81006563    400    0    1.05    0.95;
    10114    1    0    0    0    0    0    1.09057749    -6.27592709    220    0    1.11    0.95;
    10115    2    0    0    0    0    0    1.00234    -1.51435517    400    0    1.05    0.95;
    10116    2    0    0    0    0    0    1.00234    -1.51435517    400    0    1.05    0.95;
    10117    1    0    0    0    0    0    1.03214844    -4.50919191    400    0    1.05    0.95;
    10118    2    0    0    0    0    0    1.04097    0.183563766    400    0    1.05    0.95;
    10119    1    0    0    0    0    0    1.01217363    -2.59811138    400    0    1.05    0.95;
    10120    1    0    0    0    0    0    1.03979203    -3.0521084    400    0    1.05    0.95;
    10121    1    80    20    0    0    0    1.05964109    -8.78302676    220    0    1.11    0.95;
    10122    1    0    0    0    0    0    1.05016444    -9.11747147    220    0    1.11    0.95;
    10123    1    0    0    0    0    0    1.04890453    -3.22156418    400    0    1.05    0.95;
    10124    1    0    0    0    0    0    1.05013589    0.175242623    400    0    1.05    0.95;
    10125    1    0    0    0    0    0    1.01317039    -3.63154306    400    0    1.05    0.95;
    10126    2    0    0    0    0    0    1.00802    -2.79962012    400    0    1.05    0.95;
    10127    1    0    0    0    0    0    1.09610123    -6.53630774    220    0    1.11    0.95;
    10128    1    0    0    0    0    0    1.09610123    -6.53630774    220    0    1.11    0.95;
    10129    2    0.2    100    0    0    0    1.04538    1.13504975    400    0    1.05    0.95;
    10130    1    0    0    0    0    0    1.04546345    1.10857744    400    0    1.05    0.95;
    10131    1    0    0    0    0    0    1.00965071    -3.30204451    400    0    1.05    0.95;
    10132    2    0    0    0    0    0    1.02908    -3.90848408    400    0    1.05    0.95;
    10133    1    0    0    0    0    0    1.05049384    -3.11442135    400    0    1.05    0.95;
    10134    1    0    0    0    0    0    1.04763216    -3.72247982    400    0    1.05    0.95;
    10135    1    0    0    0    0    0    1.05103542    -8.94454919    220    0    1.11    0.95;
    10136    1    0    0    0    0    0    1.07155365    -6.83884489    220    0    1.11    0.95;
    10137    1    0    0    0    0    0    1.04004222    -18.735806    220    0    1.11    0.95;
    10138    1    0    0    0    0    0    1.03398467    -4.30372751    400    0    1.05    0.95;
    10139    2    0    0    0    0    0    1.03742    -1.02192829    400    0    1.05    0.95;
    10140    2    0    0    0    0    0    1.03856    -0.538740137    400    0    1.05    0.95;
    10141    2    0    0    0    0    0    1.01264    -0.912919961    400    0    1.05    0.95;
    10142    1    0    0    0    0    0    1.03741202    -4.01320144    400    0    1.05    0.95;
    10143    1    0    0    0    0    0    1.03591959    -2.31174523    400    0    1.05    0.95;
    10144    1    0    0    0    0    0    1.03593876    -2.31064752    400    0    1.05    0.95;
    10145    1    0    0    0    0    0    1.01023345    -3.05954003    400    0    1.05    0.95;
    10146    2    0    0    0    0    0    1.04296    -2.83539868    220    0    1.11    0.95;
    10147    1    0    0    0    0    0    1.03121838    -4.72936907    400    0    1.05    0.95;
    10148    1    0    0    0    0    0    1.07348619    -6.50559275    220    0    1.11    0.95;
    10149    1    0    0    0    0    0    1.07346709    -6.50846719    220    0    1.11    0.95;
    10150    2    0    0    0    0    0    1.04015    -2.43529938    400    0    1.05    0.95;
    10151    1    0    0    0    0    0    1.04141987    -2.49667955    400    0    1.05    0.95;
    10152    1    0    0    0    0    0    1.04661133    -0.372851737    400    0    1.05    0.95;
    10153    1    0    0    0    0    0    1.03097234    -2.14049898    400    0    1.05    0.95;
    10154    1    80    20    0    0    0    1.03598294    -3.57308035    220    0    1.11    0.95;
    10155    1    0    0    0    0    0    1.08189085    -6.6858568    220    0    1.11    0.95;
    10156    1    0    0    0    0    0    1.03072424    -4.48667239    400    0    1.05    0.95;
    10157    1    0    0    0    0    0    1.0869809    -4.66477766    220    0    1.11    0.95;
    10158    1    0    0    0    0    0    1.01374816    -2.25724169    400    0    1.05    0.95;
    10159    1    0    0    0    0    0    1.10999796    -4.18818725    220    0    1.11    0.95;
    10160    1    0    0    0    0    0    1.06420724    -19.871078    220    0    1.11    0.95;
    10161    1    0    0    0    0    0    1.02085733    -4.01624484    400    0    1.05    0.95;
    10162    1    0    0    0    0    0    1.05921335    -8.23839955    220    0    1.11    0.95;
    10163    1    0    0    0    0    0    1.09451582    -6.74873001    220    0    1.11    0.95;
    10164    1    0    0    0    0    0    1.02895295    -4.11129381    400    0    1.05    0.95;
    10165    1    0    0    0    0    0    1.03323754    -5.07025907    400    0    1.05    0.95;
    10166    1    0    0    0    0    0    1.07014347    -8.05366157    220    0    1.11    0.95;
    10167    1    0    0    0    0    0    1.02903398    -4.40060465    400    0    1.05    0.95;
    10168    1    0    0    0    0    0    1.02903398    -4.40060465    400    0    1.05    0.95;
    10169    1    0    0    0    0    0    1.02937841    -4.3540873    400    0    1.05    0.95;
    10170    1    0    0    0    0    0    1.02937841    -4.3540873    400    0    1.05    0.95;
    10171    2    -104.8    -159    0    0    0    1.02955    -3.80927085    400    0    1.05    0.95;
    10172    1    247.4    -57.5    0    0    0    1.02971531    -5.19939711    400    0    1.05    0.95;
    10173    1    247.4    -57.5    0    0    0    1.02971531    -5.19939711    400    0    1.05    0.95;
    10174    1    371.5    403.5    0    0    0    1.02061379    -5.4297899    400    0    1.05    0.95;
    10176    2    -249.9    162.6    0    0    0    1.02979    -3.9676198    400    0    1.05    0.95;
    10177    2    -249.9    162.6    0    0    0    1.02979    -3.9676198    400    0    1.05    0.95;
    10178    1    52.5    207.2    0    0    0    1.02728418    -10.1058804    400    0    1.05    0.95;
    10179    1    379.5    54.6    0    0    0    1.03890486    -12.8540329    400    0    1.05    0.95;
    10180    1    73.6    -95.6    0    0    0    1.08760287    -16.3585433    220    0    1.11    0.95;
    10181    1    73.6    -95.6    0    0    0    1.08760287    -16.3585433    220    0    1.11    0.95;
    10182    1    107.2    -44.4    0    0    0    1.04995133    -12.2910854    400    0    1.05    0.95;
    10183    1    86    8    0    0    0    1.04860403    -10.1323261    400    0    1.05    0.95;
    10184    1    70    49    0    0    0    1.05072686    -14.0308584    220    0    1.11    0.95;
    10185    1    0    0    0    0    0    1.0493934    -12.397533    400    0    1.05    0.95;
    10186    2    0    0    0    0    0    1.08932    -7.26957576    220    0    1.11    0.95;
    10187    2    0    0    0    0    0    1.0894    -7.23666143    220    0    1.11    0.95;
    10188    2    0    0    0    0    0    1.04594    -8.79837013    400    0    1.05    0.95;
    10189    2    10.2    0    0    0    0    1.04556    -10.0235082    400    0    1.05    0.95;
    10190    2    0    0    0    0    0    1.04288    -9.64564082    400    0    1.05    0.95;
    10191    2    0    0    0    0    0    1.04288    -9.64021287    400    0    1.05    0.95;
    10192    2    0    0    0    0    0    1.04073    -10.8206155    220    0    1.11    0.95;
    10193    1    0    0    0    0    0    1.0407258    -10.8229265    220    0    1.11    0.95;
    10194    2    0    0    0    0    0    1.03584    -9.14326771    400    0    1.05    0.95;
    10195    1    0    0    0    0    0    1.03661314    -9.18227831    400    0    1.05    0.95;
    10196    2    0    0    0    0    0    1.04091    -12.3338234    400    0    1.05    0.95;
    10197    1    295    51.9    0    0    0    1.04398578    -11.9282483    400    0    1.05    0.95;
    10198    1    0    0    0    0    0    1.04664555    -10.5255726    400    0    1.05    0.95;
    10199    1    308    40    0    0    0    1.08152426    -9.76220434    220    0    1.11    0.95;
    10200    1    0    0    0    0    0    1.08153801    -9.74549404    220    0    1.11    0.95;
    10201    1    0    0    0    0    0    1.02696305    -10.5792539    400    0    1.05    0.95;
    10202    1    103    28    0    0    0    1.03003668    -12.3531553    220    0    1.11    0.95;
    10203    1    0    0    0    0    0    1.03003668    -12.3531553    220    0    1.11    0.95;
    10204    1    170    33    0    0    0    1.04079779    -10.1211534    400    0    1.05    0.95;
    10205    1    154    6    0    0    0    1.04862673    -12.3933886    400    0    1.05    0.95;
    10206    1    150    15    0    0    0    1.02861208    -17.4960455    220    0    1.11    0.95;
    10207    1    113    15    0    0    0    1.04390396    -10.9780366    400    0    1.05    0.95;
    10208    1    65    11    0    0    0    1.04565813    -11.8625591    400    0    1.05    0.95;
    10209    1    60    10    0    0    0    1.05634562    -14.7239161    220    0    1.11    0.95;
    10210    1    204    16.9    0    0    0    1.04548224    -11.6863538    400    0    1.05    0.95;
    10211    1    142    10.9    0    0    0    1.0670574    -14.0786446    220    0    1.11    0.95;
    10212    1    83    19    0    0    0    1.04140098    -15.4594133    220    0    1.11    0.95;
    10213    1    189    35    0    0    0    1.03546775    -12.0450849    400    0    1.05    0.95;
    10214    1    17    6    0    0    0    1.04833953    -12.3219025    400    0    1.05    0.95;
    10215    1    0    0    0    0    0    1.04907938    -12.1976972    400    0    1.05    0.95;
    10216    1    2    -6    0    0    0    1.04549927    -14.7959076    220    0    1.11    0.95;
    10217    1    88    -4    0    0    0    1.04999688    -11.9303618    400    0    1.05    0.95;
    10218    1    0    0    0    0    0    1.04266504    -9.8870041    400    0    1.05    0.95;
    10219    1    0    0    0    0    0    1.04266865    -9.88308323    400    0    1.05    0.95;
    10220    1    0    0    0    0    0    1.0365977    -9.1821991    400    0    1.05    0.95;
    10221    1    0    0    0    0    0    1.03885953    -8.36354497    400    0    1.05    0.95;
    10222    1    50    20    0    0    0    1.03210551    -11.9772486    220    0    1.11    0.95;
    10223    2    -338.1    155.6    0    0    0    1.04073    -7.54501745    400    0    1.05    0.95;
    10225    2    195.7    126.6    0    0    0    1.06248    -13.5582911    110    0    1.12    0.95;
    10226    2    141.9    93.1    0    0    0    1.06441    -10.4337724    110    0    1.12    0.95;
    10227    2    234.5    57.5    0    0    0    1.10423    -16.9171668    110    0    1.12    0.95;
    10228    2    388.2    98.2    0    0    0    1.06247    -26.4231559    110    0    1.12    0.95;
    10229    2    84.7    29.1    0    0    0    1.06902    -17.8972034    110    0    1.12    0.95;
    10230    2    0    0    0    0    0    1.07323    -12.071331    110    0    1.12    0.95;
    10231    1    194.4    43.4    0    0    0    1.01832399    -23.489219    110    0    1.12    0.95;
    10232    2    195.7    43.3    0    0    0    1.01987    -23.3226932    110    0    1.12    0.95;
    10233    2    513.7    92.5    0    0    0    1.04665    -18.6775028    110    0    1.12    0.95;
    10234    2    455.4    108.8    0    0    0    1.09129    -28.4395545    110    0    1.12    0.95;
    10235    2    61.8    19.6    0    0    0    1.08091    -18.1774503    110    0    1.12    0.95;
    10236    2    260.8    80.8    0    0    0    1.07896    -10.7565183    110    0    1.12    0.95;
    10237    2    199.4    65.6    0    0    0    1.08023    -18.203353    110    0    1.12    0.95;
    10238    2    395    96.4    0    0    0    1.00809    -23.5358654    110    0    1.12    0.95;
    10239    2    344.4    71    0    0    0    1.06246    -14.5992125    110    0    1.12    0.95;
    10240    2    0    0    0    0    0    1.0666    -9.75557484    110    0    1.12    0.95;
    10241    1    0    0    0    0    0    1.07018868    -10.6595665    110    0    1.12    0.95;
    10242    1    0    0    0    0    0    1.07381766    -17.2278327    110    0    1.12    0.95;
    10243    1    0    0    0    0    0    1.06265371    -13.5589881    110    0    1.12    0.95;
    10244    1    0    0    0    0    0    1.0662311    -8.79853174    110    0    1.12    0.95;
    10245    1    185.4    59.7    0    0    0    1.07935592    -18.2182956    110    0    1.12    0.95;
    10246    2    4    2    0    0    0    1.03917    -8.08229092    14    0    1.12    0.95;
    10247    2    14    10    0    0    0    1.12    -8.11644055    14    0    1.12    0.95;
    10248    2    14    10    0    0    0    1.12    -5.66820666    14    0    1.12    0.95;
    10249    2    5    3    0    0    0    1.00179    -15.2265037    23    0    1.12    0.95;
    10250    2    28    17    0    0    0    1.0404    -6.73890437    16    0    1.12    0.95;
    10251    2    28    17    0    0    0    1.03995    -6.74006105    16    0    1.12    0.95;
    10252    2    28    17    0    0    0    1.03994    -6.73268816    16    0    1.12    0.95;
    10253    2    26.7    5.9    0    0    0    1.01534    -15.750684    15    0    1.12    0.95;
    10254    2    23    10    0    0    0    1.04999    -9.46673338    20    0    1.12    0.95;
    10255    2    4    2    0    0    0    1.03994    -12.6386815    16    0    1.12    0.95;
    10256    2    30    10    0    0    0    1.11998    -8.15059296    16    0    1.12    0.95;
    10257    2    15    5    0    0    0    1.11817    -9.72150256    16    0    1.12    0.95;
    10258    2    20    8    0    0    0    1.10518    -4.64136728    16    0    1.12    0.95;
    10259    2    30    14    0    0    0    0.98182    -3.52448508    17    0    1.12    0.95;
    10260    2    45    21    0    0    0    1.10941    -4.11747013    17    0    1.12    0.95;
    10261    2    80    40    0    0    0    0.99592    -7.93682401    25    0    1.12    0.95;
    10262    2    80    40    0    0    0    0.99592    -7.93160746    25    0    1.12    0.95;
    10263    2    10    4    0    0    0    1.09219    -8.25844514    14    0    1.12    0.95;
    10264    2    30    10    0    0    0    1.00552    -3.83139389    17    0    1.12    0.95;
    10265    2    30    10    0    0    0    1.10573    -4.0730761    16    0    1.12    0.95;
    10266    2    298.7    37.9    0    0    0    1.04403    -16.9124955    110    0    1.12    0.95;
    10267    2    198.4    53.4    0    0    0    1.08131    -15.351943    110    0    1.12    0.95;
    10268    2    114.8    20.4    0    0    0    1.06395    -13.309181    110    0    1.12    0.95;
    10269    2    275.2    110.6    0    0    0    1.07428    -17.0077426    110    0    1.12    0.95;
    10270    2    61.8    23.7    0    0    0    1.05973    -12.96159    110    0    1.12    0.95;
    10271    2    385.3    67    0    0    0    1.06494    -21.3628124    110    0    1.12    0.95;
    10272    2    104.1    17.5    0    0    0    1.072    -18.6218013    110    0    1.12    0.95;
    10273    2    541    91.4    0    0    0    1.02431    -23.3020706    110    0    1.12    0.95;
    10274    2    256.3    100.7    0    0    0    1.06504    -13.9178477    110    0    1.12    0.95;
    10275    2    0    0    0    0    0    1.06182    -12.0575268    110    0    1.12    0.95;
    10276    2    164.4    34    0    0    0    1.06034    -18.913042    110    0    1.12    0.95;
    10277    2    616.8    133.2    0    0    0    1.06264    -19.9306734    110    0    1.12    0.95;
    10278    2    15    10    0    0    0    1.11356    -7.17078264    12    0    1.12    0.95;
    10279    2    15    10    0    0    0    1.11356    -7.17078264    12    0    1.12    0.95;
    10280    1    149.8    37    0    0    0    1.05732404    -12.8352949    110    0    1.12    0.95;
    10281    2    106    22.4    0    0    0    1.07868    -16.9897795    110    0    1.12    0.95;
    10282    2    363.9    100.1    0    0    0    1.06767    -21.4369881    110    0    1.12    0.95;
    10283    1    0    0    0    0    0    1.01467886    -23.3226932    13    0    1.12    0.95;
    10284    2    1122.7    280.7    0    0    0    1.12    -19.6393825    110    0    1.12    0.95;
    10285    2    155.7    32.1    0    0    0    1.0574    -13.9804394    110    0    1.12    0.95;
    10288    2    197.5    44.6    0    0    0    1.03369    -16.7655955    110    0    1.12    0.95;
    10289    2    124.6    23.4    0    0    0    1.05256    -17.4757841    110    0    1.12    0.95;
    10290    2    148.9    31.1    0    0    0    1.06119    -22.3400294    110    0    1.12    0.95;
    10291    2    264.7    53.5    0    0    0    1.08362    -23.3376778    110    0    1.12    0.95;
    10292    2    364.8    158.7    0    0    0    1.08678    -11.9106606    110    0    1.12    0.95;
    10293    2    54.6    21.6    0    0    0    1.07356    -17.2268643    110    0    1.12    0.95;
    10294    2    17.5    3.9    0    0    1    1.08819    -13.0815024    110    0    1.12    0.95;
    10295    2    344.4    104    0    0    0    0.99474    -16.6286597    110    0    1.12    0.95;
    10296    2    275.3    104.1    0    0    0    1.08634    -17.3746886    110    0    1.12    0.95;
    10297    1    163.6    2.3    0    0    0    1.11134759    -6.00634619    110    0    1.12    0.95;
    10298    1    90.7    61    0    0    0    1.07201557    -5.80312972    110    0    1.12    0.95;
    10299    1    314    87    0    0    0    1.04694033    -7.15702498    110    0    1.12    0.95;
    10300    1    34    13    0    0    0    1.04408991    -10.3380701    110    0    1.12    0.95;
    10301    1    107    -22    0    0    0    1.07853557    -6.31370339    110    0    1.12    0.95;
    10302    1    161    58    0    0    0    1.09213112    -9.8521795    110    0    1.12    0.95;
    10303    1    161.5    37    0    0    0    1.05529559    -9.42696182    110    0    1.12    0.95;