function mpc = case145_res
%CASE145_RES

%% MATPOWER Case Format : Version 2
mpc.version = '2';

%%-----  Power Flow Data  -----%%
%% system MVA base
mpc.baseMVA = 100;

%% bus data
%	bus_i	type	Pd	Qd	Gs	Bs	area	Vm	Va	baseKV	zone	Vmax	Vmin
mpc.bus = [
	1	1	0	0	0	0	2	1.08294173	-5.44295922	500	2	1.06	0.94;
	2	1	0	0	0	0	2	1.08286386	-5.50962104	500	2	1.06	0.94;
	3	1	0	0	0	-126	2	1.10280147	-5.14073467	25.7	2	1.06	0.94;
	4	1	0	0	0	-126	2	1.10280147	-5.14073467	25.7	2	1.06	0.94;
	5	1	0	0	0	-126	2	1.10308512	-5.14054098	25.7	2	1.06	0.94;
	6	1	0	0	0	0	2	1.04873607	-8.9598918	500	2	1.06	0.94;
	7	1	0	0	0	0	2	1.09603665	1.8476186	500	2	1.06	0.94;
	8	1	0	0	0	0	2	1.11977824	-0.094339719	100	2	1.06	0.94;
	9	1	0	0	0	0	2	1.04488742	-9.17315362	500	2	1.06	0.94;
	10	1	0	0	0	0	2	1.04486359	-9.1739368	500	2	1.06	0.94;
	11	1	0	0	0	0	2	1.09777074	-11.7689947	100	2	1.06	0.94;
	12	1	0	0	0	0	2	1.04367952	-9.88679295	500	2	1.06	0.94;
	13	1	0	0	0	0	2	1.10195152	-12.5495704	100	2	1.06	0.94;
	14	1	0	0	0	0	2	1.04276098	-10.2909166	500	2	1.06	0.94;
	15	1	0	0	0	-126	2	1.07212421	-10.9209115	100	2	1.06	0.94;
	16	1	0	0	0	-126	2	1.07241494	-10.974082	100	2	1.06	0.94;
	17	1	0	0	0	-250	2	1.0039594	-10.5541389	500	2	1.06	0.94;
	18	1	0	0	0	-126	2	1.07729433	-11.9913602	100	2	1.06	0.94;
	19	1	0	0	0	-58	2	1.073444	-12.0711445	100	2	1.06	0.94;
	20	1	0	0	0	0	2	1.11578343	-12.069906	100	2	1.06	0.94;
	21	1	0	0	0	0	2	1.11122117	-12.3529039	100	2	1.06	0.94;
	22	1	0	0	0	0	2	1.03284153	-5.00928558	500	2	1.06	0.94;
	23	1	0	0	0	0	2	1.09958928	-6.63699148	100	2	1.06	0.94;
	24	1	0	0	0	0	2	1.02830099	1.17649038	500	2	1.06	0.94;
	25	1	0	0	0	0	2	1.04207764	-10.9804709	500	2	1.06	0.94;
	26	1	0	0	0	0	2	1.09112325	-12.5042007	100	2	1.06	0.94;
	27	1	0	0	0	0	2	1.04237042	-14.1503391	500	2	1.06	0.94;
	28	1	0	0	0	-126	2	1.07935571	-16.3371337	100	2	1.06	0.94;
	29	1	0	0	0	-126	2	1.07770847	-16.4986776	100	2	1.06	0.94;
	30	1	0	0	0	0	2	1.07496679	-6.46997374	100	2	1.06	0.94;
	31	1	0	0	0	0	2	1.0927115	-12.9351532	100	2	1.06	0.94;
	32	1	0	0	0	0	2	1.09780689	-11.7766705	100	2	1.06	0.94;
	33	1	0	0	0	0	2	1.14065584	-5.17860763	220	2	1.06	0.94;
	34	1	45.05	46.56	0	0	2	1.1401018	-5.11934985	220	2	1.06	0.94;
	35	1	49.19	27.53	0	0	2	1.14041294	-5.19738068	220	2	1.06	0.94;
	36	1	0	0	0	0	2	1.1398814	-4.93219483	220	2	1.06	0.94;
	37	1	0	0	0	0	2	1.12526728	-7.3455459	220	2	1.06	0.94;
	38	1	0	0	0	0	2	1.13206776	-6.40722585	220	2	1.06	0.94;
	39	1	0	0	0	0	2	1.12917117	-9.0085958	220	2	1.06	0.94;
	40	1	0	0	0	0	2	1.12914962	-9.01273432	220	2	1.06	0.94;
	41	1	0	0	54	-10	2	1.12156918	-11.5044232	100	2	1.06	0.94;
	42	1	0	0	54.8	-10	2	1.12154222	-11.5186348	100	2	1.06	0.94;
	43	1	0	0	0	0	2	1.12167618	-11.4765528	220	2	1.06	0.94;
	44	1	0	0	0	0	2	1.12164896	-11.4905207	220	2	1.06	0.94;
	45	1	0	0	0	0	2	1.12054282	-12.4651076	220	2	1.06	0.94;
	46	1	0	0	0	0	2	1.12054947	-12.4600552	220	2	1.06	0.94;
	47	1	0	0	15.2	5.37	2	1.1297004	-7.83223554	100	2	1.06	0.94;
	48	1	0	0	13.8	5.2	2	1.13000356	-7.81276759	100	2	1.06	0.94;
	49	1	0	0	0	0	2	1.13007332	-7.8033142	220	2	1.06	0.94;
	50	1	0	0	0	0	2	1.12977762	-7.82218203	220	2	1.06	0.94;
	51	1	58.45	28.44	0	0	2	1.11577443	-11.2415326	220	2	1.06	0.94;
	52	1	0	0	23	-9.7	2	1.11524404	-12.1945125	100	2	1.06	0.94;
	53	1	0	0	23.2	-9.7	2	1.11524429	-12.1960472	100	2	1.06	0.94;
	54	1	0	0	18.8	-9.3	2	1.11668556	-12.8270127	100	2	1.06	0.94;
	55	1	0	0	18.7	-9.2	2	1.11669426	-12.8270401	100	2	1.06	0.94;
	56	1	0	0	18.6	-7.5	2	1.11102219	-11.0468586	100	2	1.06	0.94;
	57	1	0	0	18.8	-7	2	1.11107003	-11.0483057	100	2	1.06	0.94;
	58	1	76.3	-10.8	121	140	2	1.11064702	-10.8735252	100	2	1.06	0.94;
	59	1	0	0	508	8.63	2	1.11921304	-11.954115	100	2	1.06	0.94;
	60	2	0	0	201	165	2	1.137	-7.1147738	100	2	1.06	0.94;
	61	1	0	0	0	149	2	1.11803762	-12.9259152	220	2	1.06	0.94;
	62	1	0	0	0	0	2	1.06002106	-15.5038081	100	2	1.06	0.94;
	63	1	0	0	823	525	2	1.11353947	-14.840735	100	2	1.06	0.94;
	64	1	0	0	123	-26	2	1.10228536	-10.3587051	100	2	1.06	0.94;
	65	1	0	0	124	-26	2	1.10226049	-10.3605236	100	2	1.06	0.94;
	66	1	102.2	26.7	216	1897	2	1.12021106	0.0709058867	100	2	1.06	0.94;
	67	2	0	0	1821	1280	2	1.09	-6.60746695	100	2	1.06	0.94;
	68	1	0	-7.41	56.3	-25	2	1.21303306	-32.1053201	100	2	1.06	0.94;
	69	1	0	0	971	-144	2	1.10099666	-11.528632	100	2	1.06	0.94;
	70	1	0	56.63	103	-86	2	1.00302313	-15.2859231	100	2	1.06	0.94;
	71	1	0	-21.2	106	-122	2	1.0305568	-15.3788243	100	2	1.06	0.94;
	72	1	0	0	1019	24.6	2	1.10460711	-12.3129618	100	2	1.06	0.94;
	73	1	0	0	1222	841	2	1.09974807	-12.1839488	100	2	1.06	0.94;
	74	1	81.9	43.7	857	574	2	1.09983111	-12.578873	100	2	1.06	0.94;
	75	1	0	0	387	199	2	1.12115839	-16.2461414	100	2	1.06	0.94;
	76	1	0	0	-667	-185	2	1.0215933	4.40834348	100	2	1.06	0.94;
	77	1	0	0	0	-125	2	0.988525916	5.59389482	100	2	1.06	0.94;
	78	1	89	26.8	0	0	2	1.07587057	-6.30925248	100	2	1.06	0.94;
	79	2	9.1	3	238	27.1	2	1.052	-10.491356	100	2	1.06	0.94;
	80	2	17.1	5	-0.08	29.9	2	1.069	-9.17823474	100	2	1.06	0.94;
	81	1	82.2	-93.1	70	-47	2	1.13237905	-26.9569287	100	2	1.06	0.94;
	82	2	2.1	1.1	111	-28	2	0.975	-19.6510058	100	2	1.06	0.94;
	83	1	0	0	105	-0.42	2	1.10023023	-6.50821517	100	2	1.06	0.94;
	84	1	24.3	8.2	0	0	2	1.11781364	-10.5256108	100	2	1.06	0.94;
	85	1	27.4	0.3	0	0	2	1.11974816	-14.0868352	100	2	1.06	0.94;
	86	1	0	0	292	-22	2	1.0601106	-15.0447342	100	2	1.06	0.94;
	87	1	0	0	37.7	-47	2	1.06705834	-8.28194018	100	2	1.06	0.94;
	88	1	69	20.9	0	0	2	1.11107045	-9.4513883	100	2	1.06	0.94;
	89	2	0.6	0.2	678	71.1	2	1.066	2.55889041	100	2	1.06	0.94;
	90	2	4.6	1.5	29.5	-19	2	0.95	-8.17271217	100	2	1.06	0.94;
	91	2	0	0	19.3	-27	2	1	-10.3120047	100	2	1.06	0.94;
	92	1	0	31.02	43.4	-43	2	0.956827314	-13.7524117	100	2	1.06	0.94;
	93	2	100.4	73.2	0	0	2	1	-3.04263556	18.5	2	1.06	0.94;
	94	2	15.4	7.6	140	-141	2	1.02	-1.49195948	100	2	1.06	0.94;
	95	2	6.7	2.2	27.2	-58	2	0.92	18.3557222	100	2	1.06	0.94;
	96	2	0	0	47.8	-45	2	1	-10.0790288	100	2	1.06	0.94;
	97	2	0	0	129	-177	2	0.967	-5.31874853	100	2	1.06	0.94;
	98	2	0	0	82.1	-121	2	0.97	4.03935422	100	2	1.06	0.94;
	99	2	10.46	5.23	0	0	2	1	-0.0243551823	18	2	1.06	0.94;
	100	2	0	0	59.1	-101	2	1.014	-0.430994085	100	2	1.06	0.94;
	101	2	17.8	4.5	64.7	-238	2	1.039	-7.22156583	100	2	1.06	0.94;
	102	2	37.6	9.2	458	-619	2	1.019	-5.41423085	100	2	1.06	0.94;
	103	2	0	0	62.4	-45	2	1	0.38311731	100	2	1.06	0.94;
	104	2	30.2	7.6	0	0	2	1.045	11.7080803	100	2	1.06	0.94;
	105	2	96	167.4	24.2	-999	2	1.007	-3.93368085	100	2	1.06	0.94;
	106	2	64	16	36.9	-719	2	1.005	-3.88113472	100	2	1.06	0.94;
	107	1	-17.5	-12.8	28.8	-22	2	1.02238633	-14.6394849	100	2	1.06	0.94;
	108	2	0	0	520	-244	2	1.014	-14.9395535	100	2	1.06	0.94;
	109	2	0	0	84.5	-47	2	0.915	-19.4444821	100	2	1.06	0.94;
	110	2	100.4	73.2	0	0	2	1	-2.4266474	18.5	2	1.06	0.94;
	111	2	60.4	1166	23.3	-999	2	1	6.68455542	100	2	1.06	0.94;
	112	2	18.6	4.6	64.3	-236	2	1.037	-7.39560944	100	2	1.06	0.94;
	113	1	0	0	0	0	2	0.979789958	-5.50962104	24	2	1.06	0.94;
	114	1	0	0	0	0	2	0.979789958	-5.50962104	24	2	1.06	0.94;
	115	2	683.5	184.7	2856	9.41	1	1.049	-15.9468521	100	1	1.06	0.94;
	116	2	792.6	315.5	1930	-195	1	1.043	-17.3081625	100	1	1.06	0.94;
	117	2	485.3	71.4	2410	-54	2	1.03	-15.8649251	100	2	1.06	0.94;
	118	2	651.9	328.4	4788	-979	2	1.01	-18.2782558	100	2	1.06	0.94;
	119	2	2094	3774	9999	-999	2	1.013	-59.9446683	100	2	1.06	0.94;
	120	1	-408	175.1	2026	855	2	1.0336995	-52.2375149	100	2	1.06	0.94;
	121	2	237.7	-17.3	306	1055	2	1.046	-20.9868002	100	2	1.06	0.94;
	122	2	29.2	7	397	-61	2	1	-3.57880177	100	2	1.06	0.94;
	123	1	-84	-19	118	1.4	2	1.01746225	-33.7931881	100	2	1.06	0.94;
	124	2	94.1	780.3	766	-999	2	1	-2.79565368	100	2	1.06	0.94;
	125	1	-712	-319	2831	-71	2	1.00882436	-33.3635916	100	2	1.06	0.94;
	126	1	-333	-160	1604	347	2	1.05238241	-74.4326444	100	2	1.06	0.94;
	127	1	-546	-72	305	-51	2	1.0073053	-37.0446502	100	2	1.06	0.94;
	128	2	4075	703.5	5252	-472	2	1.025	-40.3103335	100	2	1.06	0.94;
	129	1	-482	-122	3855	387	2	0.98025826	-73.6647953	100	2	1.06	0.94;
	130	2	4328	944.3	3830	-91	1	1.057	-52.3412217	100	1	1.06	0.94;
	131	2	21840	4320	5145	-780	1	1.042	-24.7377427	100	1	1.06	0.94;
	132	2	491.9	110.2	1239	-226	1	1.042	-7.7425407	100	1	1.06	0.94;
	133	1	-83	-36.3	103	-5.9	2	1.09257224	-12.2583684	100	2	1.06	0.94;
	134	2	22309	7402	-141	-78	1	1.044	-10.9674676	100	1	1.06	0.94;
	135	2	4298	1264	-999	835	1	1.107	28.8379496	100	1	1.06	0.94;
	136	2	52951	13552	-999	375	1	1.083	4.19426981	100	1	1.06	0.94;
	137	2	12946	2608	499	-219	1	1.064	-72.7938576	100	1	1.06	0.94;
	138	1	-363	-188	433	-81	2	1.11340948	11.7203277	100	2	1.06	0.94;
	139	2	57718	13936	1609	-999	1	1.04	-10.628763	100	1	1.06	0.94;
	140	2	24775	6676	-289	-77	1	1.05	-26.2326174	100	1	1.06	0.94;
	141	2	32799	11361	5212	-999	1	1.053	-9.38636639	100	1	1.06	0.94;
	142	2	17737	3934	4323	2210	1	1.155	-11.0818833	100	1	1.06	0.94;
	143	2	4672	1709	586	-999	1	1.031	-14.0847386	100	1	1.06	0.94;
	144	2	9602	2203	-436	-999	1	0.997	-8.92510559	100	1	1.06	0.94;
	145	3	9173	1555	-999	457	1	1.052	5.02	100	1	1.06	0.94;
];

%% generator data
%	bus	Pg	Qg	Qmax	Qmin	Vg	mBase	status	Pmax	Pmin	Pc1	Pc2	Qc1min	Qc1max	Qc2min	Qc2max	ramp_agc	ramp_10	ramp_30	ramp_q	apf
mpc.gen = [
	60	51	33.2046643	53.4	-20.4	1.137	100	1	151	0	0	0	0	0	0	0	0	0	0	0	0;
	67	1486	257.703017	891.6	-594	1.09	100	1	1586	0	0	0	0	0	0	0	0	0	0	0	0;
	79	250.2	-17.1143293	150.1	-100	1.052	100	1	350.2	0	0	0	0	0	0	0	0	0	0	0	0;
	80	47	-15.2749185	28.2	-18.8	1.069	100	1	147	0	0	0	0	0	0	0	0	0	0	0	0;
	82	70	16.5703658	42	-28	0.975	100	1	170	0	0	0	0	0	0	0	0	0	0	0	0;
	89	673	132.430305	403.8	-269	1.066	100	1	773	0	0	0	0	0	0	0	0	0	0	0	0;
	90	22	-3.85018318	13.2	-8.8	0.95	100	1	122	0	0	0	0	0	0	0	0	0	0	0	0;
	91	64	-2.5277836	38.4	-25.6	1	100	1	164	0	0	0	0	0	0	0	0	0	0	0	0;
	93	700	348.2778	766	-520	1	100	1	800	0	0	0	0	0	0	0	0	0	0	0	0;
	94	300	19.2658576	288	-192	1.02	100	1	400	0	0	0	0	0	0	0	0	0	0	0	0;
	95	131	10.4005009	108.6	-72.4	0.92	100	1	231	0	0	0	0	0	0	0	0	0	0	0	0;
	96	60	20.5259658	36	-24	1	100	1	160	0	0	0	0	0	0	0	0	0	0	0	0;
	97	140	45.0277761	84	-56	0.967	100	1	240	0	0	0	0	0	0	0	0	0	0	0	0;
	98	426	-36.9796673	255.6	-170	0.97	100	1	526	0	0	0	0	0	0	0	0	0	0	0	0;
	99	200	-10.9536864	110	-110	1	100	1	300	0	0	0	0	0	0	0	0	0	0	0	0;
	100	170	56.7697276	102	-68	1.014	100	1	270	0	0	0	0	0	0	0	0	0	0	0	0;
	101	310.9	140.217586	186.5	-124	1.039	100	1	410.9	0	0	0	0	0	0	0	0	0	0	0	0;
	102	2040	480.825884	640	0	1.019	100	1	2140	0	0	0	0	0	0	0	0	0	0	0	0;
	103	135	4.0060606	81	-54	1	100	1	235	0	0	0	0	0	0	0	0	0	0	0	0;
	104	2000	747.238711	500	0	1.045	100	1	2100	0	0	0	0	0	0	0	0	0	0	0	0;
	105	1620	366.807027	1008	0	1.007	100	1	1720	0	0	0	0	0	0	0	0	0	0	0	0;
	106	1080	193.775266	671	0	1.005	100	1	1180	0	0	0	0	0	0	0	0	0	0	0	0;
	108	800	72.5147889	480	-320	1.014	100	1	900	0	0	0	0	0	0	0	0	0	0	0	0;
	109	52	-15.9301522	31.2	-20.8	0.915	100	1	152	0	0	0	0	0	0	0	0	0	0	0	0;
	110	700	504.550966	766	0	1	100	1	800	0	0	0	0	0	0	0	0	0	0	0	0;
	111	2000	453.318683	1000	0	1	100	1	2100	0	0	0	0	0	0	0	0	0	0	0	0;
	112	300	131.730557	160	0	1.037	100	1	400	0	0	0	0	0	0	0	0	0	0	0	0;
	115	2493	144.550879	1496	-997	1.049	100	1	2593	0	0	0	0	0	0	0	0	0	0	0	0;
	116	2713	631.620824	1628	-1085	1.043	100	1	2813	0	0	0	0	0	0	0	0	0	0	0	0;
	117	2627	251.920178	1576	-1051	1.03	100	1	2727	0	0	0	0	0	0	0	0	0	0	0	0;
	118	4220	656.892516	2532	-1688	1.01	100	1	4320	0	0	0	0	0	0	0	0	0	0	0	0;
	119	8954	4745.72706	5373	-3582	1.013	100	1	9054	0	0	0	0	0	0	0	0	0	0	0	0;
	121	2997	-171.46504	1798	-1199	1.046	100	1	3097	0	0	0	0	0	0	0	0	0	0	0	0;
	122	1009	172.35942	605.4	-404	1	100	1	1109	0	0	0	0	0	0	0	0	0	0	0	0;
	124	3005	561.469541	1803	-1202	1	100	1	3105	0	0	0	0	0	0	0	0	0	0	0	0;
	128	12963	2607.42726	7778	-5185	1.025	100	1	13063	0	0	0	0	0	0	0	0	0	0	0	0;
	130	5937	1838.78167	3562	-2375	1.057	100	1	6037	0	0	0	0	0	0	0	0	0	0	0	0;
	131	28300	7485.25355	16980	-9999	1.042	100	1	28400	0	0	0	0	0	0	0	0	0	0	0	0;
	132	3095	632.141894	1857	-1238	1.042	100	1	3195	0	0	0	0	0	0	0	0	0	0	0	0;
	134	20626	7407.16734	12375	-8250	1.044	100	1	20726	0	0	0	0	0	0	0	0	0	0	0	0;
	135	5982	1564.82409	3589	-2393	1.107	100	1	6082	0	0	0	0	0	0	0	0	0	0	0	0;
	136	51950	14455.0632	31170	-9999	1.083	100	1	52050	0	0	0	0	0	0	0	0	0	0	0	0;
	137	12068	3450.87741	7241	-4827	1.064	100	1	12168	0	0	0	0	0	0	0	0	0	0	0	0;
	139	56834	15853.1148	34100	-9999	1.04	100	1	56934	0	0	0	0	0	0	0	0	0	0	0	0;
	140	23123	6710.53859	13874	-9249	1.05	100	1	23223	0	0	0	0	0	0	0	0	0	0	0	0;
	141	37911	11677.818	22747	-9999	1.053	100	1	38011	0	0	0	0	0	0	0	0	0	0	0	0;
	142	24449	5499.17374	14670	-9780	1.155	100	1	24549	0	0	0	0	0	0	0	0	0	0	0	0;
	143	5254	2157.12193	3152	-2101	1.031	100	1	5354	0	0	0	0	0	0	0	0	0	0	0	0;
	144	11397	2687.57603	6838	-4559	0.997	100	1	11497	0	0	0	0	0	0	0	0	0	0	0	0;
	145	14168.7009	3006.11106	9999	-9999	1.052	100	1	14218.62	0	0	0	0	0	0	0	0	0	0	0	0;
];

%% branch data
%	fbus	tbus	r	x	b	rateA	rateB	rateC	ratio	angle	status	angmin	angmax	Pf	Qf	Pt	Qt
mpc.branch = [
	1	2	3e-05	0.0008	0.0632	8659	0	0	0	0	1	-360	360	170.7057	0.5324	-170.6982	-7.7448;
	1	2	3e-05	0.0008	0.0632	0	0	0	0	0	1	-360	360	170.7057	0.5324	-170.6982	-7.7448;
	1	3	-0.009	-0.1718	0	0	0	0	0.935	0	1	-360	360	1.9583	-37.4789	-2.0528	35.6750;
	1	4	-0.009	-0.1718	0	0	0	0	0.935	0	1	-360	360	1.9583	-37.4789	-2.0528	35.6750;
	1	5	-0.0089	-0.1697	0	0	0	0	0.935	0	1	-360	360	1.9940	-37.7498	-2.0888	35.9421;
	1	6	0.00194	0.0209	2.3792	8659	0	0	0	0	1	-360	360	347.7502	15.6808	-345.3514	-260.1871;
	1	33	0.0001	0.006	0	750	0	0	0.935	0	1	-360	360	-95.9073	341.0118	96.0009	-335.3992;
	1	93	0.0002	0.0138	0	0	0	0	1.1036	0	1	-360	360	-299.5824	-122.5249	299.8000	137.5389;
	1	93	0.0002	0.0138	0	0	0	0	1.1036	0	1	-360	360	-299.5824	-122.5249	299.8000	137.5389;
	2	6	0.00194	0.0209	2.3792	8659	0	0	0	0	1	-360	360	341.3964	15.4896	-339.0707	-260.7643;
	2	113	0	0.0148	0	0	0	0	1.1052	0	1	-360	360	-0.0000	0.0000	0.0000	0.0000;
	2	114	0.00018	0.0145	0	0	0	0	1.1052	0	1	-360	360	-0.0000	-0.0000	0.0000	0.0000;
	3	33	0.0002	0.0221	0	0	0	0	0	0	1	-360	360	2.0528	-188.9126	-1.9941	195.3985;
	4	33	0.0002	0.0221	0	0	0	0	0	0	1	-360	360	2.0528	-188.9126	-1.9941	195.3985;
	5	33	0.0002	0.0219	0	0	0	0	0	0	1	-360	360	2.0888	-189.2585	-2.0299	195.7059;
	6	7	0.00129	0.0139	1.4652	8659	0	0	0	0	1	-360	360	-1556.7045	-146.3023	1585.1782	284.5296;
	6	9	0.00016	0.0017	0.1752	8659	0	0	0	0	1	-360	360	260.0101	203.7652	-259.8455	-221.2151;
	6	10	0.00016	0.0017	0.1752	8659	0	0	0	0	1	-360	360	261.0155	205.1438	-260.8493	-222.5760;
	6	12	0.0002	0.0021	0.8776	8659	0	0	0	0	1	-360	360	860.0505	129.1724	-858.6482	-210.5063;
	6	12	0.0002	0.0021	0.8776	8659	0	0	0	0	1	-360	360	860.0505	129.1724	-858.6482	-210.5063;
	7	8	-0.0112	-0.1516	0	0	0	0	0.9716	0	1	-360	360	-28.5715	-4.5407	28.4979	3.5436;
	7	66	0.00015	0.0097	0	750	0	0	0.9716	0	1	-360	360	405.3296	91.4376	-405.1261	-78.2772;
	7	104	0.00036	0.019	0	0	0	0	1.1052	0	1	-360	360	-937.4688	-179.8177	940.8042	355.8492;
	7	104	0.00041	0.0174	0	0	0	0	1.1052	0	1	-360	360	-1024.4674	-191.6088	1028.9958	383.7895;
	8	66	0.0002	0.0299	0	0	0	0	0	0	1	-360	360	-12.1097	-1.5225	12.1099	1.5580;
	8	66	0.0002	0.0221	0	0	0	0	0	0	1	-360	360	-16.3882	-2.0211	16.3886	2.0692;
	9	11	-0.0217	-0.3062	0	0	0	0	0.9166	0	1	-360	360	-19.5545	-14.7404	19.4544	13.3274;
	9	69	0.0004	0.0188	0	750	0	0	0.9166	0	1	-360	360	279.4000	235.9554	-278.9883	-216.6074;
	10	32	-0.027	-0.3041	0	0	0	0	0.9166	0	1	-360	360	-19.9697	-14.4431	19.8435	13.0216;
	10	69	0.0004	0.0187	0	750	0	0	0.9166	0	1	-360	360	280.8189	237.0191	-280.4032	-217.5863;
	11	69	0.0002	0.0262	0	0	0	0	0	0	1	-360	360	-19.4544	-13.3274	19.4553	13.4483;
	12	13	-0.0223	-0.3099	0	0	0	0	0.9166	0	1	-360	360	-19.7093	-12.4999	19.6156	11.1979;
	12	13	-0.0237	-0.316	0	0	0	0	0.9166	0	1	-360	360	-19.3615	-12.1974	19.2658	10.9211;
	12	13	-0.0237	-0.316	0	0	0	0	0.9166	0	1	-360	360	-19.3615	-12.1974	19.2658	10.9211;
	12	14	0.00096	0.0091	0.8556	8659	0	0	0	0	1	-360	360	84.5544	-44.6866	-84.4913	-47.8315;
	12	14	0.00096	0.0091	0.8556	8659	0	0	0	0	1	-360	360	84.5544	-44.6866	-84.4913	-47.8315;
	12	25	0.00051	0.0055	0.625	8659	0	0	0	0	1	-360	360	377.3456	-35.0300	-376.6789	-25.7550;
	12	25	0.00051	0.0055	0.625	8659	0	0	0	0	1	-360	360	377.3456	-35.0300	-376.6789	-25.7550;
	12	72	0.0003	0.0189	0	750	0	0	0.9166	0	1	-360	360	284.9874	206.4888	-284.7008	-188.4336;
	12	72	0.0003	0.019	0	750	0	0	0.9166	0	1	-360	360	283.4707	205.4259	-283.1871	-187.4657;
	12	72	0.0003	0.019	0	0	0	0	0.9166	0	1	-360	360	283.4707	205.4259	-283.1871	-187.4657;
	13	72	0.0002	0.026	0	0	0	0	0	0	1	-360	360	-19.4183	-11.0658	19.4191	11.1728;
	13	72	0.0003	0.0262	0	0	0	0	0	0	1	-360	360	-19.3105	-10.9085	19.3117	11.0146;
	13	72	0.0002	0.026	0	0	0	0	0	0	1	-360	360	-19.4183	-11.0658	19.4191	11.1728;
	14	15	-0.0415	-0.3996	0	0	0	0	0.9164	0	1	-360	360	-5.2470	-18.2004	5.1320	17.0931;
	14	16	-0.01	-0.1669	0	0	0	0	0.9164	0	1	-360	360	-11.3546	-44.0101	11.1950	41.3472;
	14	17	0.00339	0.0367	3.4582	8659	0	0	0	0	1	-360	360	23.0942	-79.8695	-22.7130	-278.2988;
	14	17	0.00352	0.0367	3.4516	8659	0	0	0	0	1	-360	360	23.4660	-79.6282	-23.0704	-277.8515;
	14	58	0.0002	0.0097	0	750	0	0	0.9164	0	1	-360	360	139.0239	317.3712	-138.8384	-308.3774;
	15	58	0.0002	0.0255	0	0	0	0	0	0	1	-360	360	-5.1320	-161.9238	5.1776	167.7463;
	16	58	0.0002	0.022	0	0	0	0	0	0	1	-360	360	-11.1950	-186.2565	11.2556	192.9167;
	17	18	-0.3181	-1.315	0	0	0	0	0.8708	0	1	-360	360	-3.7600	-5.7503	3.6470	5.2833;
	17	19	0	-0.847	0	0	0	0	0.8634	0	1	-360	360	-3.9013	-12.3185	3.9013	11.2726;
	17	20	0	-0.8676	0	0	0	0	0.8634	0	1	-360	360	-3.9557	-6.3534	3.9557	5.9940;
	17	21	-0.0095	-0.1615	0	0	0	0	0.8708	0	1	-360	360	-26.5823	-28.5925	26.4734	26.7406;
	17	22	0.00228	0.0276	2.6204	8659	0	0	0	0	1	-360	360	-367.7367	-189.1616	370.8695	-44.7425;
	17	59	0.0001	0.0071	0	750	0	0	0.8708	0	1	-360	360	451.7195	546.3428	-451.3414	-519.4996;
	18	59	0.0002	0.0298	0	0	0	0	0	0	1	-360	360	-3.6470	-151.5142	3.6866	157.4122;
	19	59	0	0.0629	0	0	0	0	0	0	1	-360	360	-3.9013	-78.1049	3.9013	81.4433;
	20	59	0	0.0638	0	0	0	0	0	0	1	-360	360	-3.9557	-5.9940	3.9557	6.0204;
	21	59	0.0002	0.0329	0	0	0	0	0	0	1	-360	360	-26.4734	-26.7406	26.4757	27.1179;
	22	23	0	-0.3787	0	0	0	0	0.9322	0	1	-360	360	-9.1381	-2.5792	9.1381	2.3011;
	22	24	0.00173	0.0208	1.9648	8659	0	0	0	0	1	-360	360	-542.0989	-7.4351	547.0184	-142.0947;
	22	30	0	-0.3066	0	0	0	0	0.9532	0	1	-360	360	-9.6841	-3.1575	9.6841	2.8865;
	22	78	0	0.0268	0	0	0	0	0.9532	0	1	-360	360	98.6841	32.1754	-98.6841	-29.7161;
	22	83	0	0.0349	0	0	0	0	0.9322	0	1	-360	360	91.3675	25.7389	-91.3675	-23.1772;
	23	83	0.0004	0.0595	0	0	0	0	0	0	1	-360	360	-4.5777	-1.1486	4.5777	1.1595;
	23	83	0.0003	0.0597	0	0	0	0	0	0	1	-360	360	-4.5604	-1.1525	4.5605	1.1634;
	24	76	0.0002	0.0088	0	0	0	0	0.9898	0	1	-360	360	-674.5068	238.8014	675.4555	-197.0574;
	24	77	-0.0023	-0.0603	0	0	0	0	0.9898	0	1	-360	360	127.4884	-96.7067	-128.0340	82.4012;
	25	26	-0.006	-0.1375	0	0	0	0	0.9166	0	1	-360	360	-25.6063	-37.0469	25.5122	34.8894;
	25	27	0.0023	0.0266	3.0508	8659	0	0	0	0	1	-360	360	224.5691	-179.9638	-223.4967	-139.0201;
	25	27	0.0023	0.0266	3.0508	8659	0	0	0	0	1	-360	360	224.5691	-179.9638	-223.4967	-139.0201;
	25	31	-0.0082	-0.1648	0	0	0	0	0.9166	0	1	-360	360	-27.1833	-29.5664	27.0809	27.5097;
	25	73	0.0003	0.0172	0	750	0	0	0.9166	0	1	-360	360	156.9380	244.3997	-156.7422	-233.1736;
	25	74	0.0004	0.0179	0	750	0	0	0.9166	0	1	-360	360	200.0712	233.6514	-199.7784	-220.5474;
	26	73	0.0003	0.0267	0	0	0	0	0	0	1	-360	360	-25.5122	-34.8894	25.5169	35.3083;
	27	28	-0.1153	-0.7453	0	0	0	0	0.9074	0	1	-360	360	-7.8338	-9.6042	7.6996	8.7366;
	27	29	-0.0163	-0.2618	0	0	0	0	0.9074	0	1	-360	360	-21.2593	-30.2430	21.0905	27.5318;
	27	75	0.00016	0.01	0	750	0	0	0.9074	0	1	-360	360	476.0864	317.8873	-475.6891	-293.0535;
	28	75	0.0002	0.029	0	0	0	0	0	0	1	-360	360	-7.6996	-155.5277	7.7412	161.5637;
	29	75	0.0002	0.0269	0	0	0	0	0	0	1	-360	360	-21.0905	-173.8752	21.1433	180.9803;
	30	78	0	0.0335	0	0	0	0	0	0	1	-360	360	-9.6841	-2.8865	9.6841	2.9161;
	31	74	0.0003	0.0279	0	0	0	0	0	0	1	-360	360	-27.0809	-27.5097	27.0847	27.8579;
	32	69	0.0002	0.0265	0	0	0	0	0	0	1	-360	360	-19.8435	-13.0216	19.8444	13.1455;
	33	34	6e-05	0.0009	0.0006	788	0	0	0	0	1	-360	360	-144.1170	79.8652	144.1295	-79.7554;
	33	35	6e-05	0.0009	0.0006	490	0	0	0	0	1	-360	360	49.1915	27.4739	-49.1900	-27.5300;
	33	37	0.00996	0.0707	0.1116	0	0	0	0	0	1	-360	360	70.9184	8.8749	-70.5135	-20.3261;
	33	38	0.00995	0.0693	0.111	1155	0	0	0	0	1	-360	360	41.1954	1.4282	-41.0599	-14.8183;
	33	39	0.0085	0.0699	0.1006	1208	0	0	0	0	1	-360	360	124.0257	1.2301	-123.0168	-5.8915;
	33	40	0.00849	0.0698	0.1004	1208	0	0	0	0	1	-360	360	124.3372	1.2781	-123.3244	-5.8836;
	33	49	0.0056	0.0493	0.0778	1078	0	0	0	0	1	-360	360	121.2630	8.3922	-120.6223	-12.7809;
	33	50	0.0056	0.0493	0.0778	1078	0	0	0	0	1	-360	360	122.1621	9.0131	-121.5113	-13.3098;
	33	110	0.00024	0.0157	0	0	0	0	1.18	0	1	-360	360	-298.5742	-193.6268	298.8995	214.9042;
	33	110	0.00023	0.0156	0	0	0	0	1.18	0	1	-360	360	-300.3848	-195.0327	300.7005	216.4468;
	34	36	0.00025	0.0022	0.0006	788	0	0	0	0	1	-360	360	-189.1795	33.1954	189.2505	-32.6489;
	36	99	0.0008	0.0455	0	0	0	0	1.1291	0	1	-360	360	-189.2505	32.6489	189.5400	-16.1837;
	37	87	0.00093	0.0442	0	0	0	0	1.05	0	1	-360	360	42.5058	10.6645	-42.4902	-9.9254;
	37	88	0.0031	0.1651	0	0	0	0	0	0	1	-360	360	28.0077	9.6616	-27.9862	-8.5171;
	38	88	0.0031	0.1638	0	0	0	0	0	0	1	-360	360	41.0599	14.8183	-41.0138	-12.3829;
	39	43	0.00602	0.0495	0.0712	1208	0	0	0	0	1	-360	360	110.9075	1.4433	-110.3251	-5.6721;
	39	84	0.00722	0.2786	0	0	0	0	0	0	1	-360	360	12.1093	4.4482	-12.0999	-4.0846;
	40	44	0.00603	0.0496	0.0714	1208	0	0	0	0	1	-360	360	111.1146	1.4025	-110.5290	-5.6287;
	40	84	0.00729	0.2756	0	0	0	0	0	0	1	-360	360	12.2098	4.4811	-12.2001	-4.1154;
	41	42	0.0005	0.1514	0	0	0	0	0	0	1	-360	360	0.2061	0.0193	-0.2061	-0.0193;
	41	43	1e-05	0.0009	0.0006	0	0	0	0	0	1	-360	360	-68.1337	-12.5985	68.1341	12.5574;
	42	44	1e-05	0.0009	0.0006	0	0	0	0	0	1	-360	360	-68.7244	-12.5593	68.7248	12.5187;
	43	46	0.00618	0.0508	0.0732	1208	0	0	0	0	1	-360	360	42.1910	-6.8852	-42.1033	-1.5944;
	44	45	0.00618	0.0508	0.0732	1208	0	0	0	0	1	-360	360	41.8042	-6.8900	-41.7181	-1.6024;
	45	61	0.00445	0.0366	0.0526	1208	0	0	0	0	1	-360	360	28.0605	1.0666	-28.0320	-7.4213;
	45	85	0	0.26	0	0	0	0	0	0	1	-360	360	13.6575	0.5358	-13.6575	-0.1489;
	46	61	0.00445	0.0366	0.0526	1208	0	0	0	0	1	-360	360	28.3609	1.0529	-28.3317	-7.4027;
	46	85	0	0.2592	0	0	0	0	0	0	1	-360	360	13.7425	0.5415	-13.7425	-0.1511;
	47	48	-0.01	0.2306	0	0	0	0	0	0	1	-360	360	-0.1813	-0.1563	0.1813	0.1564;
	47	50	1e-05	0.0009	0.0006	0	0	0	0	0	1	-360	360	-24.9879	-9.4513	24.9880	9.3798;
	47	87	0.0831	0.401	0	0	0	0	0	0	1	-360	360	5.7707	16.4610	-5.5726	-15.5049;
	48	49	1e-05	0.0009	0.0006	0	0	0	0	0	1	-360	360	-23.5048	-8.5344	23.5048	8.4622;
	48	87	0.0998	0.436	0	0	0	0	0	0	1	-360	360	5.7022	15.0179	-5.5005	-14.1368;
	49	51	0.00898	0.079	0.1248	1078	0	0	0	0	1	-360	360	97.1175	4.3187	-96.4437	-14.1282;
	50	51	0.00898	0.079	0.1248	1078	0	0	0	0	1	-360	360	96.5233	3.9300	-95.8578	-13.8093;
	51	52	0.0029	0.0279	0.0466	858	0	0	0	0	1	-360	360	73.6681	-7.8200	-73.5411	3.2429;
	51	53	0.0029	0.0279	0.0466	858	0	0	0	0	1	-360	360	73.7864	-7.8313	-73.6590	3.2581;
	51	56	0.00759	0.0483	0.0712	1093	0	0	0	0	1	-360	360	-6.8244	7.6333	6.8361	-16.3852;
	51	57	0.00759	0.0483	0.0712	1093	0	0	0	0	1	-360	360	-6.7785	7.5154	6.7900	-16.2689;
	52	53	-0.0067	0.3911	0	0	0	0	0	0	1	-360	360	0.0085	0.0001	-0.0085	-0.0001;
	52	54	0.0047	0.0293	0.0462	0	0	0	0	0	1	-360	360	44.9259	-15.3075	-44.8438	10.0657;
	53	55	0.0047	0.0293	0.0462	0	0	0	0	0	1	-360	360	44.8120	-15.3226	-44.7303	10.0785;
	54	55	-0.0553	0.9289	0	0	0	0	0	0	1	-360	360	0.0001	-0.0010	-0.0001	0.0010;
	54	61	0.00141	0.0087	0.0138	390	0	0	0	0	1	-360	360	21.4003	-21.6617	-21.3902	20.0009;
	55	61	0.00141	0.0087	0.0138	390	0	0	0	0	1	-360	360	21.4114	-21.5520	-21.4014	19.8909;
	56	57	-0.009	0.3895	0	0	0	0	0	0	1	-360	360	0.0083	-0.0135	-0.0083	0.0135;
	56	58	0.0019	0.012	0.0178	0	0	0	0	0	1	-360	360	-29.8037	7.1408	29.8185	-9.2443;
	57	58	0.0019	0.012	0.0178	0	0	0	0	0	1	-360	360	-29.9899	7.6141	30.0049	-9.7159;
	58	59	0.6674	2.2175	0	0	0	0	0	0	1	-360	360	0.8537	-0.6760	-0.8473	0.6973;
	58	72	0.0302	0.2364	0	0	0	0	0	0	1	-360	360	13.2044	1.3146	-13.1613	-0.9771;
	58	87	0.0863	0.3906	0	0	0	0	0	0	1	-360	360	-10.4043	15.0032	10.6375	-13.9477;
	58	98	0.0131	0.1765	0	0	0	0	0	0	1	-360	360	-148.1713	120.0600	152.0337	-68.0214;
	58	100	0.1193	1.269	0	0	0	0	0	0	1	-360	360	-15.0191	11.3405	15.3617	-7.6969;
	58	103	0.8416	5.5383	0	0	0	0	0	0	1	-360	360	-3.4394	3.1273	3.5868	-2.1571;
	59	60	-0.1803	5.9659	0	0	0	0	0	0	1	-360	360	-1.7900	-0.3117	1.7853	0.4690;
	59	72	0.8613	3.0485	0	0	0	0	0	0	1	-360	360	0.3757	0.4309	-0.3735	-0.4229;
	59	79	0.0099	0.2644	0	0	0	0	0	0	1	-360	360	-10.2825	28.9816	10.3572	-26.9855;
	59	80	0.2876	2.3898	0	0	0	0	0	0	1	-360	360	-2.1040	2.6636	2.1305	-2.4438;
	59	89	0.3421	9.0571	0	0	0	0	0	0	1	-360	360	-3.2558	1.2009	3.2886	-0.3302;
	59	92	-0.007	0.5678	0	0	0	0	0	0	1	-360	360	5.5220	32.1695	-5.5815	-27.3403;
	59	94	0.7041	5.9885	0	0	0	0	0	0	1	-360	360	-3.1626	2.5430	3.2552	-1.7557;
	59	98	0.106	0.5845	0	0	0	0	0	0	1	-360	360	-43.2676	43.6076	46.4609	-25.9989;
	59	100	0.0183	0.2016	0	0	0	0	0	0	1	-360	360	-105.2549	79.3115	107.7923	-51.3579;
	59	103	0.0368	0.3341	0	0	0	0	0	0	1	-360	360	-65.5306	54.8896	67.6772	-35.4002;
	59	107	0.0372	0.8834	0	0	0	0	0	0	1	-360	360	6.5796	12.1325	-6.5230	-10.7891;
	60	135	-1.831	9.7964	0	0	0	0	0	0	1	-360	360	-7.7937	1.3391	6.9080	3.3997;
	60	79	-0.0375	1.1068	0	0	0	0	0	0	1	-360	360	6.0560	9.1247	-6.0908	-8.0979;
	60	80	0.0655	2.6441	0	0	0	0	0	0	1	-360	360	1.7273	2.9111	-1.7215	-2.6768;
	60	90	-0.0201	1.5135	0	0	0	0	0	0	1	-360	360	1.1308	14.0753	-1.1618	-11.7410;
	60	92	-0.264	3.7139	0	0	0	0	0	0	1	-360	360	2.9649	5.9230	-3.0545	-4.6626;
	60	94	0.0012	0.0775	0	0	0	0	0	0	1	-360	360	-143.8161	181.0773	144.3124	-149.0214;
	60	95	-0.0855	0.9926	0	0	0	0	0	0	1	-360	360	-47.9873	30.9659	45.8301	-5.9226;
	60	138	-0.3639	1.7936	0	0	0	0	0	0	1	-360	360	-22.9139	0.6260	21.4348	6.6640;
	61	62	-0.0362	-0.2608	0	0	0	0	1.05	0	1	-360	360	-19.4230	0.3078	19.3025	-1.1758;
	61	62	-0.0472	-0.5438	0	0	0	0	1.05	0	1	-360	360	-9.3644	-0.3326	9.3278	-0.0886;
	61	63	0.00812	0.0782	0.1318	1331	0	0	0	0	1	-360	360	53.3806	-6.4603	-53.1953	-8.1640;
	61	63	0.00812	0.0782	0.1318	1331	0	0	0	0	1	-360	360	53.3806	-6.4603	-53.1953	-8.1640;
	61	64	0.00242	0.0318	0.0568	1839	0	0	0	0	1	-360	360	-168.1027	68.5147	168.7503	-67.0053;
	61	65	0.00242	0.0318	0.0568	1208	0	0	0	0	1	-360	360	-167.9704	68.5864	168.6174	-67.0856;
	61	86	0.00132	0.032	0	215	0	0	1.05	0	1	-360	360	130.9389	12.6069	-130.7375	-7.7231;
	61	86	0.0011	0.037	0	250	0	0	1.05	0	1	-360	360	113.1577	12.2105	-113.0321	-7.9832;
	61	86	0.0011	0.037	0	225	0	0	1.05	0	1	-360	360	113.1577	12.2105	-113.0321	-7.9832;
	62	86	0.0036	0.0501	0	0	0	0	0	0	1	-360	360	-17.8875	1.1679	17.8978	-1.0246;
	62	86	0.0013	0.0838	0	0	0	0	0	0	1	-360	360	-10.7428	0.0964	10.7441	-0.0104;
	63	64	0.0147	0.2825	0	0	0	0	0	0	1	-360	360	-33.5631	7.5113	33.7033	-4.8163;
	63	65	0.0147	0.2813	0	0	0	0	0	0	1	-360	360	-33.6892	7.5586	33.8305	-4.8542;
	63	66	0.0056	0.09	0	0	0	0	0	0	1	-360	360	-352.9010	60.3789	358.6902	32.6607;
	63	67	0.0321	0.2785	0	0	0	0	0	0	1	-360	360	-60.0112	20.8207	61.0557	-11.7583;
	63	69	0.0107	0.1571	0	0	0	0	0	0	1	-360	360	-44.1881	13.2036	44.3716	-10.5089;
	63	102	0.0106	0.1583	0	0	0	0	0	0	1	-360	360	-111.7969	83.6679	113.4638	-58.7748;
	63	102	0.0106	0.1576	0	0	0	0	0	0	1	-360	360	-112.2663	84.0711	113.9480	-59.0684;
	63	102	0.0107	0.1604	0	0	0	0	0	0	1	-360	360	-110.3559	82.5461	111.9948	-57.9780;
	63	102	0.0104	0.1542	0	0	0	0	0	0	1	-360	360	-114.7244	85.9450	116.4478	-60.3916;
	63	116	-0.3897	6.8588	0	0	0	0	0	0	1	-360	360	0.6609	1.1985	-0.6668	-1.0949;
	63	117	0.003	0.056	0	0	0	0	0	0	1	-360	360	45.3954	164.0105	-44.6948	-150.9314;
	63	118	-0.0125	0.2425	0	0	0	0	0	0	1	-360	360	25.2476	49.6803	-25.5607	-43.6068;
	63	124	-0.1265	2.022	0	0	0	0	0	0	1	-360	360	-11.9127	6.7199	11.7219	-3.6694;
	64	65	0.0013	0.1674	0	0	0	0	0	0	1	-360	360	0.0232	0.0162	-0.0232	-0.0162;
	64	66	0.0039	0.0684	0	0	0	0	0	0	1	-360	360	-325.6878	19.5084	329.1047	40.4191;
	64	67	0.0233	0.212	0	0	0	0	0	0	1	-360	360	-35.8108	11.5378	36.0822	-9.0679;
	64	69	0.0075	0.1196	0	0	0	0	0	0	1	-360	360	20.7246	0.0996	-20.6981	0.3232;
	64	97	-0.4336	8.2923	0	0	0	0	0	0	1	-360	360	-1.2225	1.7841	1.2058	-1.4649;
	64	124	-0.1041	1.5375	0	0	0	0	0	0	1	-360	360	-9.9293	7.2846	9.7994	-5.3655;
	65	66	0.0039	0.0682	0	0	0	0	0	0	1	-360	360	-326.6872	19.5930	330.1253	40.5298;
	65	67	0.0233	0.2111	0	0	0	0	0	0	1	-360	360	-35.9746	11.5931	36.2485	-9.1110;
	65	69	0.0075	0.1191	0	0	0	0	0	0	1	-360	360	20.7771	0.0730	-20.7505	0.3501;
	65	97	-0.4292	8.2582	0	0	0	0	0	0	1	-360	360	-1.2274	1.7915	1.2107	-1.4710;
	65	124	-0.1032	1.5312	0	0	0	0	0	0	1	-360	360	-9.9700	7.3160	9.8401	-5.3887;
	66	67	0.0081	0.0675	0	0	0	0	0	0	1	-360	360	214.7682	36.6396	-211.7042	-11.1065;
	66	68	-2.473	2.472	0	0	0	0	0	0	1	-360	360	12.5123	16.7537	-21.1292	-8.1403;
	66	69	0.0028	0.0381	0	0	0	0	0	0	1	-360	360	656.3564	74.3702	-646.6205	58.1082;
	66	97	-0.1119	2.6432	0	0	0	0	0	0	1	-360	360	3.5605	6.8251	-3.6133	-5.5769;
	66	111	0	0.0264	0	0	0	0	0	0	1	-360	360	-488.7082	538.3196	488.7082	-427.1078;
	66	111	0.00057	0.0266	0	0	0	0	0	0	1	-360	360	-473.3676	544.4156	475.7317	-434.0907;
	66	111	0	0.0273	0	0	0	0	0	0	1	-360	360	-472.5969	520.5728	472.5969	-413.0273;
	66	111	0.00057	0.0264	0	0	0	0	0	0	1	-360	360	-476.8631	548.6155	479.2631	-437.4555;
	66	124	-0.0283	0.4902	0	0	0	0	0	0	1	-360	360	9.7933	28.3221	-9.9958	-24.8140;
	67	68	-3.443	3.7172	0	0	0	0	0	0	1	-360	360	8.3130	7.5565	-11.9703	-3.6079;
	67	69	0.0061	0.055	0	0	0	0	0	0	1	-360	360	183.3997	-34.0906	-181.6131	50.1993;
	67	97	0.0063	0.1166	0	0	0	0	0	0	1	-360	360	-14.0647	115.9714	14.7884	-102.5781;
	67	119	-0.2213	9.3918	0	0	0	0	0	0	1	-360	360	9.2930	5.8494	-9.5176	3.6820;
	67	120	-0.0034	1.7847	0	0	0	0	0	0	1	-360	360	45.0870	22.5092	-45.1597	15.6378;
	67	121	0.0082	1.17	0	0	0	0	0	0	1	-360	360	24.2492	6.9820	-24.2052	-0.7113;
	67	122	-0.0047	0.4473	0	0	0	0	0	0	1	-360	360	-13.1078	22.1342	13.0816	-19.6429;
	67	124	0.0003	0.0065	0	0	0	0	0	0	1	-360	360	-1041.2252	1594.3845	1050.3815	-1395.9974;