function mpc = case3012wp_resqlim
%CASE3012WP_RESQLIM

%% MATPOWER Case Format : Version 2
mpc.version = '2';

%%-----  Power Flow Data  -----%%
%% system MVA base
mpc.baseMVA = 100;

%% bus data
%	bus_i	type	Pd	Qd	Gs	Bs	area	Vm	Va	baseKV	zone	Vmax	Vmin
mpc.bus = [
	1	1	0	0	0	0	1	1.10676936	-0.345584834	220	1	1.11	0.95;
	2	1	0	0	0	0	1	1.10784184	0.768900525	220	1	1.11	0.95;
	3	1	0	0	0	0	1	1.06564708	-31.9312803	220	1	1.11	0.95;
	4	1	0	0	0	0	1	1.06558579	-31.9403125	220	1	1.11	0.95;
	5	1	0	0	0	0	1	1.07651494	-34.1854426	220	1	1.11	0.95;
	6	1	0	0	0	0	1	1.07460891	-6.59919335	220	1	1.11	0.95;
	7	1	0	0	0	0	1	1.07458053	-6.59928752	220	1	1.11	0.95;
	8	1	0	0	0	0	1	1.09000871	-19.3949616	220	1	1.11	0.95;
	9	1	0	0	0	0	1	1.09025684	-19.3785102	220	1	1.11	0.95;
	10	1	0	0	0	0	1	1.10965188	-22.8315688	220	1	1.11	0.95;
	11	1	0	0	0	0	1	1.02503068	-14.176684	400	1	1.05	0.95;
	12	1	0	0	0	0	1	1.0251156	-14.1679075	400	1	1.05	0.95;
	13	1	0	0	0	0	1	1.01120756	-18.6215077	400	1	1.05	0.95;
	14	1	0	0	0	0	1	1.0423808	-19.2032299	220	1	1.11	0.95;
	15	1	0	0	0	0	1	1.04258431	-19.1999472	220	1	1.11	0.95;
	16	1	0	0	0	0	1	1.042602	-19.1901343	220	1	1.11	0.95;
	17	1	0	0	0	0	1	1.03077443	-23.6637271	220	1	1.11	0.95;
	18	1	0	0	0	0	1	1.03053092	-23.2878351	220	1	1.11	0.95;
	19	1	0	0	0	0	1	1.02619613	-12.4820107	400	1	1.05	0.95;
	20	1	0	0	0	0	1	1.02624464	-12.4719088	400	1	1.05	0.95;
	21	1	0	0	0	0	1	1.02147732	-22.3303013	400	1	1.05	0.95;
	22	1	0	0	0	0	1	1.01497415	-18.3499707	400	1	1.05	0.95;
	23	1	0	0	0	0	1	1.01497415	-18.3499707	400	1	1.05	0.95;
	24	2	10.05	20.1	0	0	1	1.08673	-26.3121038	220	1	1.11	0.95;
	25	2	10.05	20.1	0	0	1	1.08668	-26.3119359	220	1	1.11	0.95;
	26	1	0	0	0	0	1	1.08409849	-5.59636868	220	1	1.11	0.95;
	27	1	0	0	0	0	1	1.08421625	-5.60933593	220	1	1.11	0.95;
	28	1	0	0	0	0	1	1.0394627	-21.2764084	220	1	1.11	0.95;
	29	1	0	0	0	0	1	1.03941382	-21.2741511	220	1	1.11	0.95;
	30	1	0	0	0	0	1	1.04203641	-18.7127326	220	1	1.11	0.95;
	31	1	0	0	0	0	1	1.04197506	-18.7255723	220	1	1.11	0.95;
	32	1	0	0	0	0	1	1.08408649	-3.25023449	220	1	1.11	0.95;
	33	1	0	0	0	0	1	1.08398508	-3.27399016	220	1	1.11	0.95;
	34	1	0	0	0	0	1	1.01676085	-16.32817	400	1	1.05	0.95;
	35	1	0	0	0	0	1	1.01672784	-16.3332789	400	1	1.05	0.95;
	36	1	0	0	0	0	1	1.00654082	-19.5647864	400	1	1.05	0.95;
	37	3	48.68	86.21	0	0	1	1.11	0	220	1	1.11	0.95;
	38	2	54.54	89.93	0	0	1	1.11	1.06211364	220	1	1.11	0.95;
	39	2	20.1	40.19	0	0	1	1.11	1.0548811	220	1	1.11	0.95;
	40	2	60.29	120.57	0	0	1	1.04749	-0.5197544	400	1	1.05	0.95;
	41	2	60.29	120.57	0	0	1	1.04746	-0.513609892	400	1	1.05	0.95;
	42	1	0	0	0	0	1	1.0312237	-20.5190453	220	1	1.11	0.95;
	43	1	0	0	0	0	1	1.03112507	-20.5227299	220	1	1.11	0.95;
	44	1	0	0	0	0	1	1.04992337	-2.20243611	400	1	1.05	0.95;
	45	1	0	0	0	0	1	1.04990822	-2.20599641	400	1	1.05	0.95;
	46	1	0	0	0	0	1	1.03889172	-19.5568489	220	1	1.11	0.95;
	47	1	0	0	0	0	1	1.05915062	-9.0114981	220	1	1.11	0.95;
	48	1	0	0	0	0	1	1.0591674	-9.02955508	220	1	1.11	0.95;
	49	1	0	0	0	0	1	1.09269802	-13.1635257	220	2	1.11	0.95;
	50	1	0	0	0	0	1	1.09112282	-12.7514007	220	2	1.11	0.95;
	51	1	0	0	0	0	1	1.10361624	-11.1108481	220	2	1.11	0.95;
	52	1	0	0	0	0	1	1.10359014	-11.1152481	220	2	1.11	0.95;
	53	1	0	0	0	0	1	1.07193553	-15.1613868	220	2	1.11	0.95;
	54	1	3.23	1	0	0	1	1.0993356	-9.8110387	220	2	1.11	0.95;
	55	1	0	0	0	0	1	1.09940704	-9.81045396	220	2	1.11	0.95;
	56	1	0	0	0	0	1	1.03593	-9.98604478	400	2	1.05	0.95;
	57	2	26.12	60.29	0	0	1	1.10173	-11.2497111	220	2	1.11	0.95;
	58	2	54.26	120.57	0	0	1	1.10171	-11.250105	220	2	1.11	0.95;
	59	2	13.06	30.14	0	0	1	1.10172	-11.2511075	220	2	1.11	0.95;
	60	2	26.12	50.24	0	0	1	1.05	-9.38144387	400	2	1.05	0.95;
	61	2	26.12	50.24	0	0	1	1.05	-9.37467263	400	2	1.05	0.95;
	62	1	0	0	0	0	1	1.09392064	-10.5491812	220	2	1.11	0.95;
	63	1	0	0	0	0	1	1.04483134	-13.9115067	400	2	1.05	0.95;
	64	1	0	0	0	0	1	1.04482929	-13.9126794	400	2	1.05	0.95;
	65	1	0	0	0	0	1	1.04771683	-10.9315228	400	2	1.05	0.95;
	66	1	0	0	0	0	1	1.07811882	-13.4351274	220	2	1.11	0.95;
	67	1	0	0	0	0	1	1.07811062	-13.4300167	220	2	1.11	0.95;
	68	1	0	0	0	0	1	1.04570476	-10.5978921	400	2	1.05	0.95;
	69	1	0	0	0	0	1	1.04569075	-10.5999226	400	2	1.05	0.95;
	70	2	13.06	30.14	0	0	1	1.10839	-9.84860101	220	2	1.11	0.95;
	71	2	13.06	30.14	0	0	1	1.10837	-9.85025628	220	2	1.11	0.95;
	72	2	13.06	30.14	0	0	1	1.04326	-10.2152979	400	2	1.05	0.95;
	73	1	26.12	60.29	0	0	1	1.0432884	-10.2168395	400	2	1.05	0.95;
	74	1	149.71	60.29	0	0	1	1.09851701	-12.2042891	220	2	1.11	0.95;
	75	1	29.14	10.05	0	0	1	1.09849802	-12.2059765	220	2	1.11	0.95;
	76	1	0	0	0	0	1	1.09639689	-10.7267062	220	2	1.11	0.95;
	77	1	0	0	0	0	1	1.09639763	-10.7229161	220	2	1.11	0.95;
	78	1	0	0	0	0	1	1.09737624	-12.1529456	220	2	1.11	0.95;
	79	1	0	0	0	0	1	1.09739012	-12.1568154	220	2	1.11	0.95;
	80	1	0	0	0	0	1	1.04994409	-11.5375689	400	2	1.05	0.95;
	81	1	0	0	0	0	1	1.04991026	-11.5491841	400	2	1.05	0.95;
	82	1	0	0	0	0	1	1.09993322	-12.2322862	220	2	1.11	0.95;
	83	1	0	0	0	0	1	1.10058413	-12.1041817	220	2	1.11	0.95;
	84	1	0	0	0	0	1	1.07962849	-12.2552613	220	2	1.11	0.95;
	85	1	0	0	0	0	1	1.09318674	-4.33816842	220	3	1.11	0.95;
	86	1	9.35	0	0	0	1	1.09446861	-9.16259537	220	3	1.11	0.95;
	87	1	8.18	0	0	0	1	1.09448578	-9.16284678	220	3	1.11	0.95;
	88	1	0	0	0	0	1	1.09956625	-2.96486167	220	3	1.11	0.95;
	89	1	0	0	0	0	1	1.09968884	-2.95202881	220	3	1.11	0.95;
	90	1	0	0	0	0	1	1.10941403	-2.55043495	220	3	1.11	0.95;
	91	1	0	0	0	0	1	1.10943363	-2.55270962	220	3	1.11	0.95;
	92	1	0	0	0	0	1	1.07461125	-4.34262451	220	3	1.11	0.95;
	93	1	0	0	0	0	1	1.0743633	-4.34940206	220	3	1.11	0.95;
	94	2	28.13	70.33	0	0	1	1.10879	-2.11960266	220	3	1.11	0.95;
	95	2	42.2	103.49	0	0	1	1.11	-1.64526403	220	3	1.11	0.95;
	96	1	7.72	-24.99	0	0	1	1.09582793	-3.1033308	220	3	1.11	0.95;
	97	1	0	0	0	0	1	1.09581166	-3.10433618	220	3	1.11	0.95;
	98	2	32.15	142.68	0	0	1	1.05	-4.71293912	400	3	1.05	0.95;
	99	1	0	0	0	0	1	1.04990437	-4.74028657	400	3	1.05	0.95;
	100	1	0	0	0	0	1	1.05971187	-6.31646343	220	3	1.11	0.95;
	101	1	0	0	0	0	1	1.10844219	-2.05528899	220	3	1.11	0.95;
	102	1	0	0	0	0	1	1.10843992	-2.05254264	220	3	1.11	0.95;
	103	1	45.11	7.94	0	0	1	1.09611123	-4.11215722	220	3	1.11	0.95;
	104	1	0	0	0	0	1	1.09605278	-4.11691517	220	3	1.11	0.95;
	105	1	0	0	0	0	1	1.10420446	-1.90262	220	3	1.11	0.95;
	106	1	0	0	0	0	1	1.10413922	-1.90483999	220	3	1.11	0.95;
	107	1	0	0	0	0	1	1.10027813	-3.68616378	220	3	1.11	0.95;
	108	1	0	0	0	0	1	1.10026439	-3.69305867	220	3	1.11	0.95;
	109	1	0	0	0	0	1	1.04331094	-2.27558636	400	3	1.05	0.95;
	110	1	0	0	0	0	1	1.04330968	-2.2771903	400	3	1.05	0.95;
	111	1	0	0	0	0	1	1.10684229	-1.75042868	220	3	1.11	0.95;
	112	1	0	0	0	0	1	1.10685485	-1.74911313	220	3	1.11	0.95;
	113	1	0	0	0	0	1	1.08095719	-3.71569985	220	3	1.11	0.95;
	114	1	0	0	0	0	1	1.0808628	-3.72874736	220	3	1.11	0.95;
	115	1	29.36	18.51	0	0	1	1.10079889	-3.14700213	220	3	1.11	0.95;
	116	1	0	0	0	0	1	1.10076718	-3.15914004	220	3	1.11	0.95;
	117	1	0	0	0	0	1	1.09452549	-9.14359011	220	3	1.11	0.95;
	118	1	0	0	0	0	1	1.09451685	-9.14060782	220	3	1.11	0.95;
	119	1	0	0	0	0	1	1.06064649	-4.67933769	220	3	1.11	0.95;
	120	1	0	0	0	0	1	1.0606167	-4.68073077	220	3	1.11	0.95;
	121	2	0	0	0	0	1	1.1099795	-1.76922594	220	3	1.11	0.95;
	122	2	10.05	44.21	0	0	1	1.11	-1.76731127	220	3	1.11	0.95;
	123	2	7.03	18.09	0	0	1	1.10998	-1.82328826	220	3	1.11	0.95;
	124	2	8.04	21.1	0	0	1	1.11	-1.81188567	220	3	1.11	0.95;
	125	1	0	0	0	0	1	1.09599756	-4.52605189	220	3	1.11	0.95;
	126	1	71.54	7.94	0	0	1	1.09603539	-4.53442059	220	3	1.11	0.95;
	127	1	0	0	0	0	1	1.07897194	-4.95604228	220	3	1.11	0.95;
	128	1	0	0	0	0	1	1.08907759	-2.65559992	220	3	1.11	0.95;
	129	1	0	0	0	0	1	1.08912216	-2.65771855	220	3	1.11	0.95;
	130	1	0	0	0	0	1	1.09440015	-3.16989132	220	3	1.11	0.95;
	131	1	0	0	0	0	1	1.09450032	-3.16163237	220	3	1.11	0.95;
	132	1	0	0	0	0	1	1.04136538	-5.56066639	400	3	1.05	0.95;
	133	1	0	0	0	0	1	1.04136538	-5.56066639	400	3	1.05	0.95;
	134	2	0	0	0	0	1	1.10755074	-2.69735763	220	3	1.11	0.95;
	135	1	9.04	20.1	0	0	1	1.10751845	-2.69983746	220	3	1.11	0.95;
	136	1	6.03	15.07	0	0	1	1.09262545	-4.22460493	220	3	1.11	0.95;
	137	1	0	0	0	0	1	1.09263737	-4.2361505	220	3	1.11	0.95;
	138	1	0	0	0	0	1	1.04764978	-11.3697116	400	3	1.05	0.95;
	139	1	0	0	0	0	1	1.04767698	-11.3716894	400	3	1.05	0.95;
	140	1	0	0	0	0	1	1.04984193	-6.09600467	400	3	1.05	0.95;
	141	1	0	0	0	0	1	1.04984009	-6.09413741	400	3	1.05	0.95;
	142	1	0	0	0	0	1	1.07638738	-5.21797266	220	3	1.11	0.95;
	143	1	0	0	0	0	1	1.0764451	-5.21550547	220	3	1.11	0.95;
	144	2	18.34	15.86	0	0	1	1.10995	-1.37088948	220	3	1.11	0.95;
	145	2	41.01	43.07	0	0	1	1.11	-1.34769337	220	3	1.11	0.95;
	146	2	28.13	66.31	0	0	1	1.03968	-4.608335	400	3	1.05	0.95;
	147	1	0	0	0	0	1	1.03973076	-4.60767825	400	3	1.05	0.95;
	148	1	0	0	0	0	1	1.09479469	-4.20914662	220	3	1.11	0.95;
	149	1	0	0	0	0	1	1.0948701	-4.20229785	220	3	1.11	0.95;
	150	1	0	0	0	0	1	1.10973351	-1.82840563	220	3	1.11	0.95;
	151	1	0	0	0	0	1	1.09824811	-3.82614723	220	3	1.11	0.95;
	152	2	0	0	0	0	1	1.07464324	-4.34285682	220	3	1.11	0.95;
	153	2	0	0	0	0	1	1.07439518	-4.34963291	220	3	1.11	0.95;
	154	1	7.84	20.1	0	0	1	1.08711248	-13.1269278	220	4	1.11	0.95;
	155	1	8.04	20.1	0	0	1	1.08710755	-13.1390526	220	4	1.11	0.95;
	156	1	0	0	0	0	1	1.06295142	-14.820975	220	4	1.11	0.95;
	157	1	0	0	0	0	1	1.06291523	-14.8224138	220	4	1.11	0.95;
	158	1	0	0	0	0	1	1.05399435	-16.569344	220	4	1.11	0.95;
	159	1	0	0	0	0	1	1.08052761	-13.1124257	220	4	1.11	0.95;
	160	1	0	0	0	0	1	1.0804429	-13.1217866	220	4	1.11	0.95;
	161	1	0	0	0	0	1	1.02169367	-12.6821754	400	4	1.05	0.95;
	162	1	0	0	0	0	1	1.02165922	-12.6846226	400	4	1.05	0.95;
	163	1	0	0	0	0	1	1.02443438	-28.782091	220	4	1.11	0.95;
	164	1	0	0	0	0	1	1.07664205	-35.8289298	220	4	1.11	0.95;
	165	1	0	0	0	0	1	1.07664205	-35.8289298	220	4	1.11	0.95;
	166	1	0	0	0	0	1	1.07061377	-31.3222593	220	4	1.11	0.95;
	167	1	0	0	0	0	1	1.07061377	-31.3222593	220	4	1.11	0.95;
	168	1	0	0	0	0	1	1.05332326	-16.8056648	220	4	1.11	0.95;
	169	2	0	0	0	0	1	1.07969499	-18.4582461	220	4	1.11	0.95;
	170	2	0	0	0	0	1	1.07966684	-18.4731743	220	4	1.11	0.95;
	171	1	0	0	0	0	1	1.10999125	-15.26039	220	4	1.11	0.95;
	172	1	12.06	30.14	0	0	1	1.103986	-33.7106536	220	4	1.11	0.95;
	173	2	9.39	2.43	0	0	1	1.10392966	-33.7110064	220	4	1.11	0.95;
	174	1	12.06	30.14	0	0	1	1.03614175	-30.8696807	400	4	1.05	0.95;
	175	2	24.11	60.29	0	0	1	1.03615	-30.8657322	400	4	1.05	0.95;
	176	1	0	0	0	0	1	0.993185995	-27.7074313	220	4	1.11	0.95;
	177	1	0	0	0	0	1	0.993302508	-27.7159422	220	4	1.11	0.95;
	178	1	0	0	0	0	1	1.04702859	-23.068952	220	4	1.11	0.95;
	179	1	0	0	0	0	1	1.04704052	-23.0731888	220	4	1.11	0.95;
	180	2	26.12	64.3	0	0	1	1.11	-9.34669205	220	4	1.11	0.95;
	181	1	26.12	64.3	0	0	1	1.10999438	-9.35466405	220	4	1.11	0.95;
	182	2	26.12	64.51	0	0	1	1.11	-9.33208771	220	4	1.11	0.95;
	183	1	26.12	64.51	0	0	1	1.04936387	-8.69088015	400	4	1.05	0.95;
	184	1	0	0	0	0	1	1.04933214	-8.69234773	400	4	1.05	0.95;
	185	1	0	0	0	0	1	1.08028655	-35.8640851	220	4	1.11	0.95;
	186	1	0	0	0	0	1	1.08028655	-35.8640851	220	4	1.11	0.95;
	187	1	0	0	0	0	1	1.00716879	-13.7207433	400	4	1.05	0.95;
	188	1	0	0	0	0	1	0.977621766	-19.5595741	400	4	1.05	0.95;
	189	1	0	0	0	0	1	1.01978659	-11.7316811	400	4	1.05	0.95;
	190	1	0	0	0	0	1	1.0198006	-11.7234429	400	4	1.05	0.95;
	191	1	12.06	30.14	0	0	1	1.0816696	-18.6153474	220	4	1.11	0.95;
	192	1	14.66	30.65	0	0	1	1.08136751	-18.6574345	220	4	1.11	0.95;
	193	1	38.18	64.3	0	0	1	1.03123637	-12.0148702	400	4	1.05	0.95;
	194	1	0	0	0	0	1	1.01277259	-35.4142316	220	4	1.11	0.95;
	195	1	0	0	0	0	1	1.01282422	-35.4192665	220	4	1.11	0.95;
	196	1	0	0	0	0	1	1.07605526	-35.9137025	220	4	1.11	0.95;
	197	1	0	0	0	0	1	1.07606065	-35.9148393	220	4	1.11	0.95;
	198	1	0	0	0	0	1	1.0189649	-29.9688128	220	4	1.11	0.95;
	199	1	0	0	0	0	1	1.01894168	-29.9604735	220	4	1.11	0.95;
	200	1	0	0	0	0	1	0.979097086	-31.6561722	400	4	1.05	0.95;
	201	1	0	0	0	0	1	0.979097086	-31.6561722	400	4	1.05	0.95;
	202	1	0	0	0	0	1	1.0152698	-21.6471249	220	4	1.11	0.95;
	203	1	0	0	0	0	1	1.01526363	-21.6416957	220	4	1.11	0.95;
	204	1	0	0	0	0	1	1.00887557	-30.7141404	220	4	1.11	0.95;
	205	1	0	0	0	0	1	1.06312361	-14.3385667	220	4	1.11	0.95;
	206	1	0	0	0	0	1	1.06313749	-14.3509685	220	4	1.11	0.95;
	207	1	0	0	0	0	1	1.05478662	-12.6409966	220	4	1.11	0.95;
	208	1	3.14	1.51	0	0	1	1.0662113	-21.6025853	220	4	1.11	0.95;
	209	1	0	0	0	0	1	1.00574209	-22.9320878	220	4	1.11	0.95;
	210	1	0	0	0	0	1	1.00572543	-22.9235553	220	4	1.11	0.95;
	211	1	0	0	0	0	1	1.04319786	-28.0269938	220	5	1.11	0.95;
	212	1	0	0	0	0	1	1.10982275	-32.4047484	220	5	1.11	0.95;
	213	1	0	0	0	0	1	1.03197695	-31.3261359	400	5	1.05	0.95;
	214	1	0	0	0	0	1	1.03200842	-31.3272124	400	5	1.05	0.95;
	215	1	0	0	0	0	1	1.02309589	-29.2889506	400	5	1.05	0.95;
	216	1	0	0	0	0	1	1.02310668	-29.2954662	400	5	1.05	0.95;
	217	1	0	0	0	0	1	1.02942444	-34.5833733	400	5	1.05	0.95;
	218	1	0	0	0	0	1	1.02323639	-33.1736064	220	5	1.11	0.95;
	219	1	0	0	0	0	1	1.02323904	-33.1793311	220	5	1.11	0.95;
	220	1	0	0	0	0	1	1.05401157	-28.204685	220	5	1.11	0.95;
	221	1	0	0	0	0	1	1.05394635	-28.2085774	220	5	1.11	0.95;
	222	1	0	0	0	0	1	1.00519716	-25.5194813	400	5	1.05	0.95;
	223	1	0	0	0	0	1	1.00519716	-25.5194813	400	5	1.05	0.95;
	224	1	0	0	0	0	1	1.02833548	-31.23951	400	5	1.05	0.95;
	225	1	0	0	0	0	1	1.05091228	-27.1381469	220	5	1.11	0.95;
	226	1	0	0	0	0	1	1.05092892	-27.1312993	220	5	1.11	0.95;
	227	1	0	0	0	0	1	1.07066599	-30.8358337	220	5	1.11	0.95;
	228	1	0	0	0	0	1	1.06010862	-31.5125707	220	5	1.11	0.95;
	229	1	0	0	0	0	1	1.02687738	-31.2908663	400	5	1.05	0.95;
	230	1	0	0	0	0	1	1.02684455	-31.2911609	400	5	1.05	0.95;
	231	1	0	0	0	0	1	1.04968066	-34.6381185	400	5	1.05	0.95;
	232	1	0	0	0	0	1	1.05256745	-31.5908162	220	5	1.11	0.95;
	233	1	0	0	0	0	1	1.05265309	-31.5871731	220	5	1.11	0.95;
	234	1	0	0	0	70	1	1.03620752	-30.5364407	400	5	1.25	0.75;
	235	1	0	0	0	0	1	1.03619897	-30.5395424	400	5	1.05	0.95;
	236	1	0	0	0	0	1	1.02814338	-29.3299434	220	5	1.11	0.95;
	237	1	0	0	0	0	1	1.02809248	-29.3292047	220	5	1.11	0.95;
	238	1	0	0	0	0	1	1.03102337	-27.329011	220	5	1.11	0.95;
	239	1	0	0	0	0	1	1.03094753	-27.3444473	220	5	1.11	0.95;
	240	2	2.01	40.19	0	0	1	1.02222	-28.5910742	400	5	1.05	0.95;
	241	2	5.55	30.14	0	0	1	1.02222	-28.5879852	400	5	1.05	0.95;
	242	1	0	0	0	0	1	1.06831482	-33.6187884	220	5	1.11	0.95;
	243	1	0	0	0	0	1	1.06842853	-33.613323	220	5	1.11	0.95;
	244	2	0	0	0	0	0	1.11	-3.30840743	220	0	1.11	0.95;
	245	1	9.94	2.01	0	0	1	1.0585083	-28.5919657	110	1	1.12	0.95;
	246	1	8.89	0	0	0	1	1.06765567	-36.3666969	110	1	1.12	0.95;
	247	1	8.89	0	0	0	1	1.06753599	-36.3580802	110	1	1.12	0.95;
	248	1	6.09	1	0	0	1	1.11129705	-22.2944323	110	1	1.12	0.95;
	249	1	6.09	2.01	0	0	1	1.11135533	-22.3185479	110	1	1.12	0.95;
	250	1	2.94	2.51	0	0	1	1.03572753	-27.1853833	110	1	1.12	0.95;
	251	1	6.29	5.83	0	0	1	1.03568153	-27.1879525	110	1	1.12	0.95;
	252	1	5.18	1.31	0	0	1	1.0890988	-2.80955435	110	1	1.12	0.95;
	253	1	6.2	1	0	0	1	1.07821531	-3.68640844	110	1	1.12	0.95;
	254	1	-11.53	119.74	0	0	1	1.10397866	-25.4343381	110	1	1.12	0.95;
	255	1	23.02	2.01	0	0	1	1.10419384	-25.6314205	110	1	1.12	0.95;
	256	1	14.65	1.51	0	0	1	1.10537905	-25.8425043	110	1	1.12	0.95;
	257	1	16.74	0	0	0	1	1.10521413	-25.9933921	110	1	1.12	0.95;
	258	1	26.16	3.01	0	0	1	1.10371645	-26.1366903	110	1	1.12	0.95;
	259	1	11.51	2.01	0	0	1	1.10386243	-25.6113639	110	1	1.12	0.95;
	260	1	5.23	1	0	0	1	1.10342004	-26.0753016	110	1	1.12	0.95;
	261	1	5.23	1	0	0	1	1.10334127	-26.0535704	110	1	1.12	0.95;
	262	1	0	0	0	0	1	1.10526113	-26.0942642	110	1	1.12	0.95;
	263	1	7.72	1.51	0	0	1	1.09863677	-25.4084407	110	1	1.12	0.95;
	264	1	5.59	1	0	0	1	1.09871053	-25.4023237	110	1	1.12	0.95;
	265	1	5.05	0.5	0	0	1	1.1069374	-24.6069266	110	1	1.12	0.95;
	266	1	5.05	0.5	0	0	1	1.10686621	-24.6293798	110	1	1.12	0.95;
	267	1	0.06	0	0	0	1	1.05745897	-19.4593613	110	1	1.12	0.95;
	268	1	10.87	2.51	0	0	1	1.07462327	-11.3809916	110	1	1.12	0.95;
	269	1	20.71	5.63	0	0	1	1.11031305	-24.3515408	110	1	1.12	0.95;
	270	1	0.91	0.4	0	0	1	1.09028564	-5.2390366	110	1	1.12	0.95;
	271	1	1.21	-0.9	0	0	1	1.08702705	-1.07386018	110	1	1.12	0.95;
	272	1	5.66	0.3	0	0	1	1.09795716	-25.8387338	110	1	1.12	0.95;
	273	1	5.23	0.2	0	0	1	1.09942386	-33.3924889	110	1	1.12	0.95;
	274	1	24.07	2.01	0	0	1	1.08332477	-27.3932007	110	1	1.12	0.95;
	275	1	4.17	2.11	0	0	1	1.10854865	-9.93922019	110	1	1.12	0.95;
	276	1	8.33	1.51	0	0	1	1.05795149	-15.0917098	110	1	1.12	0.95;
	277	1	3.15	0.5	0	0	1	1.11903589	-24.5114263	110	1	1.12	0.95;
	278	2	3.86	1.61	0	0	1	1.11411733	-9.56931883	110	1	1.12	0.95;
	279	2	3.86	1.61	0	0	1	1.11960488	-11.0017136	110	1	1.12	0.95;
	280	1	24.36	6.53	0	0	1	1.09660553	-24.8488182	110	1	1.12	0.95;
	281	1	10.36	2.21	0	0	1	1.07938043	-3.54873336	110	1	1.12	0.95;
	282	1	6.09	0.5	0	0	1	1.07394097	-13.965579	110	1	1.12	0.95;
	283	1	3.25	0.2	0	0	1	1.07392741	-13.9593091	110	1	1.12	0.95;
	284	1	13.51	7.03	0	0	1	1.07441847	-2.68695955	110	1	1.12	0.95;
	285	1	20.72	11.55	0	0	1	1.07432482	-2.70794553	110	1	1.12	0.95;
	286	1	10.31	0.4	0	0	1	1.08046662	-29.9019303	110	1	1.12	0.95;
	287	1	12.6	4.52	0	0	1	1.11022361	-9.33775185	110	1	1.12	0.95;
	288	1	9.6	0.8	0	0	1	1.07967674	-30.1669896	110	1	1.12	0.95;
	289	1	0	0	0	0	1	1.07967588	-30.1714221	110	1	1.12	0.95;
	290	1	6.28	0.3	0	0	1	1.08506661	-30.1990494	110	1	1.12	0.95;
	291	1	5.23	0	0	0	1	1.07879487	-30.434734	110	1	1.12	0.95;
	292	1	4.19	0	0	0	1	1.07874703	-30.4391735	110	1	1.12	0.95;
	293	1	1.05	0	0	0	1	1.08730101	-28.9040523	110	1	1.12	0.95;
	294	1	0	0	0	0	1	1.08735285	-28.9291542	110	1	1.12	0.95;
	295	1	0.23	0.4	0	0	1	1.09376189	-26.8208004	110	1	1.12	0.95;
	296	1	0	0	0	0	1	1.09380631	-26.8419145	110	1	1.12	0.95;
	297	1	9.42	2.01	0	0	1	1.06724047	-33.804777	110	1	1.12	0.95;
	298	1	0.3	0.1	0	0	1	1.10375399	-5.96374927	110	1	1.12	0.95;
	299	1	0.3	0.1	0	0	1	1.1001215	-5.88644936	110	1	1.12	0.95;
	300	1	13.51	7.64	0	0	1	1.10153885	-6.04268754	110	1	1.12	0.95;
	301	1	0.51	0.2	0	0	1	1.10008916	-5.88803384	110	1	1.12	0.95;
	302	1	7.78	0.1	0	0	1	1.07807393	-32.2216856	110	1	1.12	0.95;
	303	1	8.99	0.1	0	0	1	1.07810757	-32.2342552	110	1	1.12	0.95;
	304	1	6.71	2.21	0	0	1	1.11130118	-10.3400102	110	1	1.12	0.95;
	305	1	6.7	0.6	0	0	1	1.10264076	-6.21799301	110	1	1.12	0.95;
	306	1	3.66	0.3	0	0	1	1.10264168	-6.19888482	110	1	1.12	0.95;
	307	1	4.16	1	0	0	1	1.11612096	-27.3548011	110	1	1.12	0.95;
	308	1	0	0	0	0	1	1.08649342	-1.04104522	110	1	1.12	0.95;
	309	1	0	0	0	0	1	1.08655228	-1.06372599	110	1	1.12	0.95;
	310	1	33.84	48.83	0	0	1	0.999894651	2.65295785	24	1	1.12	0.95;
	311	1	6.28	0.5	0	0	1	1.09557888	-34.9528982	110	1	1.12	0.95;
	312	1	6.28	0.5	0	0	1	1.09553727	-34.9727798	110	1	1.12	0.95;
	313	1	4.71	0.5	0	0	1	1.09706801	-34.9339782	110	1	1.12	0.95;
	314	1	2.62	0.5	0	0	1	1.10753493	-33.8218411	110	1	1.12	0.95;
	315	1	0	0	0	45	1	1.08615186	-34.1825033	16	1	1.25	0.75;
	316	2	0	-0.02	0	0	1	1.06071722	-26.1886884	110	1	1.12	0.95;
	317	1	17.79	2.51	0	0	1	1.10284355	-26.1830781	110	1	1.12	0.95;
	318	1	3.66	0.5	0	0	1	1.05999564	-38.8198969	110	1	1.12	0.95;
	319	1	6.37	0.5	0	0	1	1.11500004	-23.253915	110	1	1.12	0.95;
	320	1	24.36	6.53	0	0	1	1.07399589	-17.6728472	110	1	1.12	0.95;
	321	1	26.39	6.23	0	0	1	1.09900641	-25.0253828	110	1	1.12	0.95;
	322	1	17.27	1	0	0	1	1.07251873	-38.1097268	110	1	1.12	0.95;
	323	1	43.95	2.51	0	0	1	1.09209045	-33.4560861	110	1	1.12	0.95;
	324	1	5.76	0.4	0	0	1	1.09539819	-33.5486599	110	1	1.12	0.95;
	325	1	4.16	1	0	0	1	1.07394479	-2.79291643	110	1	1.12	0.95;
	326	1	4.88	1.21	0	0	1	1.07386163	-2.80986874	110	1	1.12	0.95;
	327	1	13.11	4.22	0	0	1	1.10142575	-10.5890922	110	1	1.12	0.95;
	328	1	8.37	1	0	0	1	1.06128712	-39.033942	110	1	1.12	0.95;
	329	1	10.15	1	0	0	1	1.11486081	-22.702889	110	1	1.12	0.95;
	330	1	12.18	2.01	0	0	1	1.10933679	-22.0485195	110	1	1.12	0.95;
	331	1	3.84	1	0	0	1	1.07603414	-31.2761983	110	1	1.12	0.95;
	332	1	31.28	22.1	0	0	1	1.08493048	-1.42786725	110	1	1.12	0.95;
	333	1	22.75	13.06	0	0	1	1.07934527	-3.18389645	110	1	1.12	0.95;
	334	1	38.41	12.06	0	0	1	1.08597684	-1.13813837	110	1	1.12	0.95;
	335	1	5.08	2.51	0	0	1	1.09900926	-24.1538988	110	1	1.12	0.95;
	336	1	13.04	0.7	0	0	1	1.10646041	-25.5245879	110	1	1.12	0.95;
	337	1	2.93	0.4	0	0	1	1.11500999	-22.61992	110	1	1.12	0.95;
	338	1	7.78	1	0	0	1	1.11504851	-22.6303917	110	1	1.12	0.95;
	339	1	16.74	1.51	0	0	1	1.08387453	-27.543964	110	1	1.12	0.95;
	340	1	7.32	0.4	0	0	1	1.05934549	-38.5441628	110	1	1.12	0.95;
	341	1	3.14	0.1	0	0	1	1.05938068	-38.5374996	110	1	1.12	0.95;
	342	1	9.08	2.11	0	0	1	1.10768932	-22.8634163	110	1	1.12	0.95;
	343	1	9.08	2.11	0	0	1	1.10762419	-22.8570783	110	1	1.12	0.95;
	344	1	0.3	0	0	0	1	1.09622458	-25.004277	110	1	1.12	0.95;
	345	1	0.81	0.2	0	0	1	1.11628645	-22.3556263	110	1	1.12	0.95;
	346	1	0	0	0	0	1	1.10814887	-23.3715326	110	1	1.12	0.95;
	347	1	11.69	5.63	0	0	1	1.10773492	-9.12458257	110	1	1.12	0.95;
	348	1	7.82	3.72	0	0	1	1.11073819	-9.73277747	110	1	1.12	0.95;
	349	1	4.88	0.3	0	0	1	1.07913615	-10.9979614	110	1	1.12	0.95;
	350	1	3.86	0.6	0	0	1	1.07918887	-11.0048724	110	1	1.12	0.95;
	351	1	3.66	0.5	0	0	1	1.10036894	-27.4528357	110	1	1.12	0.95;
	352	1	9.42	0.5	0	0	1	1.09704246	-29.62089	110	1	1.12	0.95;
	353	1	11.17	2.01	0	0	1	1.10799657	-23.1659687	110	1	1.12	0.95;
	354	1	13.2	2.01	0	0	1	1.0876571	-23.4081173	110	1	1.12	0.95;
	355	1	23.87	14.07	0	0	1	1.07434529	-3.1922422	110	1	1.12	0.95;
	356	1	10.36	5.02	0	0	1	1.07428874	-3.1834229	110	1	1.12	0.95;
	357	1	2.02	0.4	0	0	1	1.08830698	-1.23422112	110	1	1.12	0.95;
	358	1	0	0	0	0	1	1.08695748	-1.44123854	110	1	1.12	0.95;
	359	1	13.82	4.92	0	0	1	1.10785582	-9.1522521	110	1	1.12	0.95;
	360	1	3.05	1	0	0	1	1.09870285	-24.3068192	110	1	1.12	0.95;
	361	1	14.02	1.81	0	0	1	1.08967198	-11.1509088	110	1	1.12	0.95;
	362	1	0	0	0	0	1	1.09215003	-32.7311559	110	1	1.12	0.95;
	363	1	11.51	0.2	0	0	1	1.09222095	-32.7535819	110	1	1.12	0.95;
	364	1	4.71	0	0	0	1	1.09754433	-28.8221224	110	1	1.12	0.95;
	365	1	4.97	1.31	0	0	1	1.0920661	-25.7505949	110	1	1.12	0.95;
	366	1	5.56	0.2	0	0	1	1.09474091	-15.5477768	110	1	1.12	0.95;
	367	1	24.36	7.03	0	0	1	1.08924699	-23.2298821	110	1	1.12	0.95;
	368	1	15.23	1.61	0	0	1	1.11775196	-22.4146227	110	1	1.12	0.95;
	369	1	11.89	3.82	0	0	1	1.10988324	-9.07712349	110	1	1.12	0.95;
	370	1	6.5	1.21	0	0	1	1.06181489	-26.860721	110	1	1.12	0.95;
	371	1	8.19	0.1	0	0	1	1.1002935	-26.2210406	110	1	1.12	0.95;
	372	1	16.27	0.5	0	0	1	1.09500887	-15.4339586	110	1	1.12	0.95;
	373	1	5.69	0.5	0	0	1	1.0944326	-9.97437878	110	1	1.12	0.95;
	374	1	9.75	3.52	0	0	1	1.11225932	-9.50869339	110	1	1.12	0.95;
	375	1	18.09	6.53	0	0	1	1.11802057	-11.1062116	110	1	1.12	0.95;
	376	1	16.74	0	0	0	1	1.10087652	-27.5391258	110	1	1.12	0.95;
	377	1	5.69	0.5	0	0	1	1.10814071	-9.99533664	110	1	1.12	0.95;
	378	1	0	0	0	0	1	1.08520653	-5.86074943	110	1	1.12	0.95;
	379	1	19.02	6.91	0	0	1	1.11010424	-9.0641641	110	1	1.12	0.95;
	380	1	18.09	5.93	0	0	1	1.11083434	-10.3274157	110	1	1.12	0.95;
	381	1	23.78	7.74	0	0	1	1.10797992	-9.06630395	110	1	1.12	0.95;
	382	1	25.81	8.44	0	0	1	1.11350639	-9.45545308	110	1	1.12	0.95;
	383	1	49.45	18.99	0	0	1	1.10944648	-9.25639659	110	1	1.12	0.95;
	384	1	30.41	12.76	0	0	1	1.11611997	-9.28599367	110	1	1.12	0.95;
	385	2	30.41	12.76	0	0	1	1.11752	-10.3348503	110	1	1.12	0.95;
	386	1	0	0	0	0	1	1.11272172	-9.48960017	110	1	1.12	0.95;
	387	1	32.5	14.27	0	0	1	1.11000695	-8.9112283	110	1	1.12	0.95;
	388	1	13.89	6.13	0	0	1	1.1131234	-9.48607982	110	1	1.12	0.95;
	389	1	6.57	1	0	0	1	1.10254733	-14.0112551	110	1	1.12	0.95;
	390	1	8.49	0.9	0	0	1	1.10251805	-14.0277741	110	1	1.12	0.95;
	391	1	2.09	0	0	0	1	1.09135823	-27.0958358	110	1	1.12	0.95;
	392	1	4.67	0	0	0	1	1.09288571	-26.6477893	110	1	1.12	0.95;
	393	1	12.59	2.41	0	0	1	1.09569527	-26.1910229	110	1	1.12	0.95;
	394	1	15.53	4.02	0	0	1	1.09306847	-26.6415491	110	1	1.12	0.95;
	395	1	0	0	0	0	1	1.09309701	-26.6274876	110	1	1.12	0.95;
	396	1	9.14	2.41	0	0	1	1.10745755	-22.4816337	110	1	1.12	0.95;
	397	1	7.51	1.91	0	0	1	1.10743783	-22.4683696	110	1	1.12	0.95;
	398	1	14.23	4.62	0	0	1	1.10816866	-9.09316287	110	1	1.12	0.95;
	399	1	21.13	6.83	0	0	1	1.10667769	-9.18899954	110	1	1.12	0.95;
	400	1	17.79	1	0	0	1	1.09575835	-30.0022301	110	1	1.12	0.95;
	401	1	26.01	9.34	0	0	1	1.11166198	-9.51982956	110	1	1.12	0.95;
	402	1	17.38	6.23	0	0	1	1.10776205	-9.37261599	110	1	1.12	0.95;
	403	1	7.42	2.71	0	0	1	1.10905834	-9.41347855	110	1	1.12	0.95;
	404	1	10.46	0	0	0	1	1.09720659	-29.7135107	110	1	1.12	0.95;
	405	1	5.23	0	0	0	1	1.09717198	-29.7374622	110	1	1.12	0.95;
	406	1	10.66	1	0	0	1	1.09875379	-26.0464365	110	1	1.12	0.95;
	407	1	8.12	1	0	0	1	1.09872181	-26.0567093	110	1	1.12	0.95;
	408	1	17.88	5.83	0	0	1	1.10927084	-9.39110746	110	1	1.12	0.95;
	409	1	9.34	1.81	0	0	1	1.09976422	-10.2656042	110	1	1.12	0.95;
	410	1	5.18	0.4	0	0	1	1.0989314	-10.3607872	110	1	1.12	0.95;
	411	1	51.92	16.88	0	0	1	1.10370054	-9.41491463	110	1	1.12	0.95;
	412	1	11.98	2.41	0	0	1	1.07321858	-21.2766842	110	1	1.12	0.95;
	413	1	8.83	2.31	0	0	1	1.07321298	-21.2900121	110	1	1.12	0.95;
	414	1	2.34	0.9	0	0	1	1.09681964	-26.1865966	110	1	1.12	0.95;
	415	1	10.66	2.01	0	0	1	1.09682815	-26.1857059	110	1	1.12	0.95;
	416	1	0	0	0	0	1	1.10176788	-10.5983641	110	1	1.12	0.95;
	417	1	9.6	0.8	0	0	1	1.07713382	-33.2223703	110	1	1.12	0.95;
	418	1	17.58	5.73	0	0	1	1.10982973	-10.2192253	110	1	1.12	0.95;
	419	1	6.09	2.61	0	0	1	1.07279601	-30.6296552	110	1	1.12	0.95;
	420	1	6.9	2.01	0	0	1	1.0727085	-30.6313055	110	1	1.12	0.95;
	421	1	20.69	6.23	0	0	1	1.11630156	-22.3355429	110	1	1.12	0.95;
	422	1	20.69	6.23	0	0	1	1.10115123	-23.3948707	110	1	1.12	0.95;
	423	1	5.23	0	0	0	1	1.09508275	-26.6703005	110	1	1.12	0.95;
	424	1	1.22	0.2	0	0	1	1.0745745	-25.27275	110	1	1.12	0.95;
	425	1	0	0	0	0	1	1.11599947	-22.5053781	110	1	1.12	0.95;
	426	1	0	0	0	0	1	1.10667979	-21.7144943	110	1	1.12	0.95;
	427	1	0	0	0	45	1	1.11463454	-22.8257163	16	1	1.25	0.75;
	428	1	0	0	0	0	1	0.995412502	-18.6215077	32	1	1.25	0.75;
	429	1	20.3	4.02	0	0	1	1.04943889	-19.4221488	110	1	1.12	0.95;
	430	1	22.33	4.02	0	0	1	1.08580978	-23.5480899	110	1	1.12	0.95;
	431	1	0	0	0	0	1	1.11621386	-22.5096225	110	1	1.12	0.95;
	432	1	6.28	0.5	0	0	1	1.06701407	-38.7270833	110	1	1.12	0.95;
	433	1	12.08	3.62	0	0	1	1.09916359	-27.713738	110	1	1.12	0.95;
	434	1	15.16	0.8	0	0	1	1.07160751	-32.6746311	110	1	1.12	0.95;
	435	1	19.51	6.33	0	0	1	1.11024105	-9.04945819	110	1	1.12	0.95;
	436	1	15.54	2.61	0	0	1	1.10741282	-23.0421018	110	1	1.12	0.95;
	437	1	0	0	0	0	1	1.10906082	-22.0651777	110	1	1.12	0.95;
	438	1	7.85	0.5	0	0	1	1.09142053	-30.1124308	110	1	1.12	0.95;
	439	1	3.53	1.11	0	0	1	1.11114799	-22.8856298	110	1	1.12	0.95;
	440	1	0	0	0	0	1	1.11157786	-22.5105434	110	1	1.12	0.95;
	441	1	0	0	0	0	1	1.11156405	-22.5050475	110	1	1.12	0.95;
	442	1	0	0	0	15	1	0.991735911	-23.6273678	16	1	1.25	0.75;
	443	1	0	0	0	15	1	0.993932934	-23.2834644	16	1	1.25	0.75;
	444	1	10.66	3.01	0	0	1	1.07006534	-25.7873393	110	1	1.12	0.95;
	445	1	6.4	0.8	0	0	1	1.09590397	-25.2660725	110	1	1.12	0.95;
	446	1	3.55	0.5	0	0	1	1.09588047	-25.2602013	110	1	1.12	0.95;
	447	1	5.96	0.9	0	0	1	1.11810059	-23.8225224	110	1	1.12	0.95;
	448	1	6.17	0.9	0	0	1	1.11811709	-23.8265701	110	1	1.12	0.95;
	449	1	0	0	0	0	1	1.11287892	-21.6079541	110	1	1.12	0.95;
	450	1	0	0	0	0	1	1.11289203	-21.5348124	110	1	1.12	0.95;
	451	1	0	0	0	0	1	1.11282458	-21.5828035	110	1	1.12	0.95;
	452	1	0	0	0	0	1	0.980996175	-22.3303013	16	1	1.25	0.75;
	453	1	6.3	1.31	0	0	1	1.07433866	-14.4236063	110	1	1.12	0.95;
	454	1	8.93	1.51	0	0	1	1.11318668	-27.7057329	110	1	1.12	0.95;
	455	2	45.13	21.81	0	0	1	1.11245	-22.31651	110	1	1.12	0.95;
	456	2	32.5	15.68	0	0	1	1.11895	-22.9226273	110	1	1.12	0.95;
	457	2	94.17	53.55	0	0	1	1.11707	-20.9308535	110	1	1.12	0.95;
	458	2	77.9	45.62	0	0	1	1.11493	-21.5316054	110	1	1.12	0.95;
	459	1	0	0	0	0	1	1.11207917	-25.0721375	110	1	1.12	0.95;
	460	1	0	0	0	0	1	1.11190159	-25.1066859	110	1	1.12	0.95;
	461	1	10.41	0.3	0	0	1	1.08878184	-27.9062015	110	1	1.12	0.95;
	462	1	14.25	1.21	0	0	1	1.08250656	-29.3693603	110	1	1.12	0.95;
	463	1	6.17	0.3	0	0	1	1.08249848	-29.3858479	110	1	1.12	0.95;
	464	1	3.66	0.3	0	0	1	1.07732993	-34.7909884	110	1	1.12	0.95;
	465	1	0	0	0	0	1	1.09419747	-30.457728	110	1	1.12	0.95;
	466	1	11.67	2.01	0	0	1	1.0899781	-26.9072006	110	1	1.12	0.95;
	467	1	11.17	2.51	0	0	1	1.08997815	-26.9079285	110	1	1.12	0.95;
	468	1	6.6	1.11	0	0	1	1.0867477	-11.4930348	110	1	1.12	0.95;
	469	1	4.77	1.11	0	0	1	1.10286413	-11.4386602	110	1	1.12	0.95;
	470	1	15.7	1	0	0	1	1.07554193	-36.8734574	110	1	1.12	0.95;
	471	1	9.9	0.5	0	0	1	1.0735076	-32.3055162	110	1	1.12	0.95;
	472	1	7.21	0.9	0	0	1	1.0741997	-13.8496268	110	1	1.12	0.95;
	473	1	7.82	1.41	0	0	1	1.0742998	-13.8696075	110	1	1.12	0.95;
	474	1	7.61	2.51	0	0	1	1.09085831	-26.9379781	110	1	1.12	0.95;
	475	1	15.63	3.62	0	0	1	1.11447146	-27.2285111	110	1	1.12	0.95;
	476	1	11.78	2.61	0	0	1	1.11559206	-27.3169325	110	1	1.12	0.95;
	477	1	25.07	7.44	0	0	1	1.07734454	-30.6006962	110	1	1.12	0.95;
	478	2	-7.73	18	0	0	1	1.11867	-27.022792	110	1	1.12	0.95;
	479	1	13.61	11.34	0	0	1	1.10447141	-29.0572399	110	1	1.12	0.95;
	480	1	2.62	0.2	0	0	1	1.09120431	-31.3913474	110	1	1.12	0.95;
	481	1	18.68	5.63	0	0	1	1.10888861	-23.0745791	110	1	1.12	0.95;
	482	1	22.56	7.33	0	0	1	1.10587021	-13.0647811	110	1	1.12	0.95;
	483	1	18.27	5.63	0	0	1	1.10935303	-23.2488791	110	1	1.12	0.95;
	484	1	12.5	5.22	0	0	1	1.11190082	-8.91083674	110	1	1.12	0.95;
	485	1	5.39	2.21	0	0	1	1.11091307	-9.03221961	110	1	1.12	0.95;
	486	1	0	0	0	0	1	1.08382028	-3.06033205	110	1	1.12	0.95;
	487	1	0	0	0	0	1	1.08691546	-1.44010099	110	1	1.12	0.95;
	488	1	4.45	0.2	0	0	1	1.11592845	-22.6914929	110	1	1.12	0.95;
	489	1	2.84	1	0	0	1	1.09528049	-29.2442504	110	1	1.12	0.95;
	490	1	7.21	1	0	0	1	1.10198818	-12.5664444	110	1	1.12	0.95;
	491	1	8.59	0.8	0	0	1	1.11972833	-23.7716896	110	1	1.12	0.95;
	492	1	5.36	0.2	0	0	1	1.11981428	-22.1082842	110	1	1.12	0.95;
	493	1	0	0	0	0	1	1.11516093	-22.4732653	110	1	1.12	0.95;
	494	1	0	0	0	0	1	1.11480904	-24.4314901	110	1	1.12	0.95;
	495	1	5.55	1.21	0	0	1	1.09203681	-25.2398662	110	1	1.12	0.95;
	496	1	5.55	1.21	0	0	1	1.09208934	-25.2588607	110	1	1.12	0.95;
	497	1	4.98	0.6	0	0	1	1.07661952	-14.5864973	110	1	1.12	0.95;
	498	1	16.24	4.02	0	0	1	1.11811211	-22.4394642	110	1	1.12	0.95;
	499	1	38.78	8.04	0	0	1	1.11385228	-21.7278934	110	1	1.12	0.95;