function mpc = case6468rte_resqlim
%CASE6468RTE_RESQLIM

%% MATPOWER Case Format : Version 2
mpc.version = '2';

%%-----  Power Flow Data  -----%%
%% system MVA base
mpc.baseMVA = 100;

%% bus data
%    bus_i    type    Pd    Qd    Gs    Bs    area    Vm    Va    baseKV    zone    Vmax    Vmin
mpc.bus = [
    1    1    0    0    0    0    1    0.98015625    -17.2014016    45    1    1    0.888889;
    2    1    0    0    0    0    1    1.03318384    -12.8222341    63    1    1.06349    0.936508;
    3    1    11.7    -1.2    0    0    1    0.982831127    -9.74773802    63    1    1.07937    0.952381;
    4    1    33.8    -8.2    0    0    1    1.06598446    -4.09730995    90    1    1.08889    0.933333;
    5    1    11    -0.9    0    0    1    0.981068016    -30.1680539    63    1    1.06349    0.952381;
    6    1    13    4.3    0    0    1    1.03038021    -15.7611964    63    1    1.07937    0.920635;
    7    1    1    -0.2    0    0    1    1.05659018    -17.7879141    63    1    1.07937    0.920635;
    8    1    0.4    -4.4    0    0    1    1.06945544    -0.386174276    225    1    1.08889    0.888889;
    9    1    16.9    0    0    0    1    1.02859203    -21.7681743    63    1    1.06349    0.936508;
    10    1    0    0    0    0    1    1.06565101    -3.7299876    90    1    1.07778    0.922222;
    11    1    20    -3.1    0    0    1    1.06565078    -3.72998512    90    1    1.07778    0.922222;
    12    1    0    0    0    0    1    0.991365344    3.51019531    63    1    1.07937    0.952381;
    13    1    0    0    0    0    1    1.05402133    -2.55022319    380    1    1.10263    1.05084;
    14    1    37    3.6    0    0    1    1.04675168    -8.43715996    90    1    1.07778    0.977778;
    15    1    0    0    0    0    1    1.02110038    -21.3025712    63    1    1.07937    0.920635;
    16    1    10.3    1.5    0    0    1    1.04486326    -23.7921159    63    1    1.07937    0.920635;
    17    1    11.2    -0.6    0    0    1    1.04847326    -15.8103071    90    1    1.06667    0.977778;
    18    1    0    0    0    0    1    0.921170654    -11.2012371    45    1    1    0.888889;
    19    1    1    0    0    0    1    1.02411809    -12.9646127    63    1    1.06349    0.936508;
    20    1    2.3    -18.3    0    0    1    0.922003298    -11.2325143    45    1    1    0.888889;
    21    1    6.5    -1.9    0    0    1    1.03769567    -10.1249994    90    1    1.06667    0.977778;
    22    1    15.2    1.4    0    0    1    1.00162253    -4.76952068    63    1    1.07937    0.952381;
    23    1    29.1    4.6    0    0    1    1.00731353    -17.9265586    63    1    1.06349    0.936508;
    24    1    9.7    -2.8    0    0    1    1.06338607    -2.79643139    90    1    1.11111    0.955556;
    25    1    46.5    -6.1    0    0    1    1.09031201    -1.19387282    90    1    1.1    0.944444;
    26    1    20.5    4.7    0    0    1    1.02394376    -8.09320315    90    1    1.06667    0.977778;
    27    1    0    0    0    0    1    1.06605156    -4.31947967    225    1    1.08444    1.00444;
    28    1    0.4    0.9    0    0    1    1.02665453    -13.5225767    63    1    1.07937    0.952381;
    29    1    52.7    1.8    0    0    1    1.01149342    -22.9568371    63    1    1.06349    0.968254;
    30    1    29.8    -1.9    0    0    1    1.06357561    -3.78144947    90    1    1.08889    0.933333;
    31    1    0    0    0    0    1    1.02866871    -14.7853209    63    1    1.06349    0.936508;
    32    1    0    0    0    0    1    1.02498336    -9.69746361    150    1    1.10667    0.9;
    33    1    0    0    0    0    1    1.0392863    -11.3095181    225    1    1.08889    0.933333;
    34    1    0    0    0    0    1    1.03370725    -11.5367196    225    1    1.08889    0.933333;
    35    1    0    0    0    0    1    1.05362102    -7.9352539    380    1    1.10526    1.03947;
    36    1    0    0    0    0    1    1.05776907    -6.6294007    380    1    1.10526    1.03947;
    37    1    2.3    4.4    0    0    1    1.02524458    -17.4921406    63    1    1.07937    0.920635;
    38    1    7    -1    0    0    1    1.06079643    -4.03889262    63    1    1.09524    0.936508;
    39    1    35    -6.8    0    0    1    1.01483672    -16.5757359    90    1    1.07778    0.977778;
    40    1    31.7    0.5    0    0    1    1.04006896    -7.03914548    90    1    1.07778    0.977778;
    41    1    0    0    0    0    1    1.08025126    -5.6089699    225    1    1.09194    1.00444;
    42    1    0    0    0    0    1    1.09538824    7.68145627    63    1    1.13061    0.952381;
    43    1    3.4    2.8    0    0    1    1.05150254    -4.6908059    90    1    1.07778    0.977778;
    44    1    12.4    0    0    0    1    1.00460812    -30.079713    63    1    1.06349    0.952381;
    45    1    3    2.1    0    0    1    1.01604228    -12.8458914    90    1    1.06667    0.977778;
    46    1    0    0    0    0    1    1.00764665    -14.7019545    63    1    1.06349    0.936508;
    47    2    0    0    0    0    1    1.00607089    -14.6953631    63    1    1.06349    0.936508;
    48    1    34    1.3    0    0    1    1.04939437    -4.09664612    90    1    1.07778    0.922222;
    49    1    6.9    -2.5    0    0    1    1.03366245    -11.0074309    63    1    1.06349    0.936508;
    50    1    0    0    0    0    1    1.05666163    -16.9493331    63    1    1.07436    0.936508;
    51    1    0    0    0    0    1    1.04258328    -12.6043117    225    1    1.08889    0.933333;
    52    1    5.8    2.5    0    0    1    1.02064119    -14.5783342    90    1    1.06667    0.977778;
    53    1    0.2    -0.3    0    0    1    1.02141165    -5.78427369    63    1    1.04762    0.952381;
    54    1    0.9    -0.8    0    0    1    1.04552056    -5.5124957    90    1    1.06667    0.977778;
    55    1    30.1    5.4    0    0    1    1.0686666    -6.18879214    225    1    1.08889    1.00444;
    56    1    42.2    6.3    0    0    1    1.05082942    -4.96279604    225    1    1.08889    1.00444;
    57    1    0    0    0    0    1    1.04348366    -18.944119    63    1    1.07937    0.920635;
    58    1    107.6    28.8    0    0    1    1.06847778    -6.20032714    225    1    1.08889    1.00444;
    59    1    5.2    1.4    0    0    1    0.989788724    -7.53967614    63    1    1.07937    0.952381;
    60    1    0    0    0    0    1    0.99894057    -2.08665191    63    1    1.07937    0.952381;
    61    1    29.6    5.1    0    0    1    0.997515477    -3.98113882    63    1    1.07937    0.952381;
    62    1    0    0    0    0    1    0.999693552    -1.80162213    63    1    1.07937    0.952381;
    63    1    12.8    2    0    0    1    0.993778863    4.28880523    63    1    1.07937    0.952381;
    64    1    47.2    -0.7    0    0    1    1.07037365    1.72511732    225    1    1.08889    0.888889;
    65    1    10    2.9    0    0    1    1.00700748    -4.41636119    63    1    1.07937    0.952381;
    66    1    11.1    -9.3    0    0    1    1.04758124    -17.4972167    63    1    1.06349    0.936508;
    67    1    0    0    0    0    1    1.03546578    -8.61224316    63    1    1.07937    0.920635;
    68    1    41.1    -6.8    0    0    1    1.01820114    -13.5823441    63    1    1.06349    0.936508;
    69    1    14.4    -3.2    0    0    1    1.01000379    -33.9951441    63    1    1.06349    0.952381;
    70    1    8.7    0.6    0    0    1    1.00568625    3.77033591    63    1    1.07937    0.952381;
    71    1    55.8    10.7    0    0    1    1.0266983    -6.61543455    63    1    1.04762    0.952381;
    72    1    0    0    0    0    1    1.08576092    0.518380627    225    1    1.08889    1.00444;
    73    1    0    0    0    0    1    1.08576114    0.518759599    225    1    1.08889    1.00444;
    74    1    37.1    -8.7    0    0    1    1.07083605    1.79485256    225    1    1.08889    0.888889;
    75    1    19.3    1.4    0    0    1    1.0587594    -4.4957889    90    1    1.06825    0.977778;
    76    1    6.3    3.2    0    0    1    1.05305082    7.0570097    225    1    1.08889    0.986667;
    77    1    28.9    -5.2    0    0    1    1.03852858    -12.1363095    63    1    1.06349    0.936508;
    78    1    0    0    0    0    1    1.05236954    -21.3713162    63    1    1.07937    0.920635;
    79    1    0    0    0    0    1    1.02848954    -4.12880028    63    1    1.04762    0.952381;
    80    1    26.1    -1    0    0    1    1.07154915    -4.0738332    225    1    1.08889    1.00444;
    81    1    26.1    3.5    0    0    1    1.07155462    -4.07350312    225    1    1.08889    1.00444;
    82    1    9.8    -3.2    0    0    1    1.02804285    -11.471119    63    1    1.06349    0.936508;
    83    1    85    46.2    0    0    1    1.06322515    -5.4146329    225    1    1.08889    1.00444;
    84    1    -1    -1.1    0    0    1    0.99917069    -12.0435147    63    1    1.06349    0.936508;
    85    1    2.3    -0.8    0    0    1    1.04129835    -13.9050804    63    1    1.06349    0.936508;
    86    1    30.3    -3.7    0    0    1    1.01595578    -21.8058255    90    1    1.06667    0.977778;
    87    1    0    0    0    0    1    1.0036844    4.09396209    63    1    1.07937    0.952381;
    88    1    11.5    -3.8    0    0    1    1.03016187    -13.0349384    63    1    1.06349    0.936508;
    89    1    17.7    -4.9    0    0    1    1.05482201    -6.98229573    90    1    1.07778    0.977778;
    90    1    0.7    -0.3    0    0    1    0.921037082    -12.1407166    45    1    1    0.888889;
    91    1    0    0    0    0    1    0.921170654    -11.2012371    45    1    1    0.888889;
    92    1    24.7    0.4    0    0    1    1.0344944    -16.0181746    63    1    1.06349    0.968254;
    93    1    2.3    -2.5    0    0    1    0.952939949    -14.5587689    45    1    1    0.888889;
    94    1    13    -4.9    0    0    1    1.05350471    -6.94765416    90    1    1.06667    0.977778;
    95    1    38    3.8    0    0    1    1.02208727    -14.056121    90    1    1.06667    0.977778;
    96    1    0.9    -0.6    0    0    1    1.02561054    -12.8506344    63    1    1.06349    0.936508;
    97    1    47    0.8    0    0    1    1.04162244    -20.4493727    63    1    1.07937    0.920635;
    98    1    6.6    -2.2    0    0    1    1.0356067    -7.75620415    63    1    1.07937    0.952381;
    99    1    21.9    3.2    0    0    1    0.999888339    -3.53632078    63    1    1.07937    0.952381;
    100    1    46.3    7.4    0    0    1    1.01174839    -17.2353287    63    1    1.06349    0.936508;
    101    1    14    -1.5    0    0    1    0.999038425    -12.5075345    63    1    1.06349    0.936508;
    102    3    0    0    0    0    1    1.02    -18.8714842    63    1    1.07937    0.952381;
    103    1    13.2    -4    0    0    1    1.00797877    -2.14646401    63    1    1.07937    0.952381;
    104    1    0    0    0    0    1    1.04192876    0.379133529    225    1    1.08889    0.986667;
    105    1    28.5    -1.6    0    0    1    1.0694859    1.07526451    225    1    1.08889    0.888889;
    106    1    38.8    2.2    0    0    1    1.07953231    -2.38896524    90    1    1.1    0.944444;
    107    1    71.6    4.9    0    0    1    1.05939728    -23.719724    225    1    1.08444    1.00889;
    108    1    7.9    -4.6    0    0    1    1.06649552    -2.71240724    90    1    1.07778    0.977778;
    109    1    60.6    7.8    0    0    1    1.03671214    -13.1146045    63    1    1.06349    0.936508;
    110    1    0    0    0    0    1    1.02595631    -9.45086379    225    1    1.08889    0.933333;
    111    1    34.2    -7.2    0    0    1    1.00878728    -21.2506822    63    1    1.06349    0.968254;
    112    1    0    0    0    0    1    1.03087131    -7.1741668    63    1    1.04762    0.952381;
    113    1    0    0    0    0    1    1.06882775    -4.81604439    225    1    1.08889    1.00444;
    114    1    11.5    -1    0    0    1    1.0451541    -17.3658322    63    1    1.06349    0.936508;
    115    1    0    0    0    0    1    1.05403046    -2.55030657    380    1    1.10526    1.05085;
    116    1    0    0    0    0    1    1.05403046    -2.55030657    380    1    1.10526    1.05085;
    117    1    13.2    -2.2    0    0    1    1.01502686    -13.875613    63    1    1.07937    0.952381;
    118    1    2    0.8    0    0    1    1.06061781    -4.26477723    90    1    1.07012    0.977778;
    119    1    35.5    0.7    0    0    1    1.03035548    -6.56711302    63    1    1.06349    0.936508;
    120    1    29.9    -1.3    0    0    1    1.0182367    -17.2553428    63    1    1.06349    0.936508;
    121    1    15.3    3.7    0    0    1    1.04048156    -13.5906249    63    1    1.07937    0.920635;
    122    2    0    0    0    0    1    1.01018223    -3.14317875    63    1    1.07937    0.952381;
    123    1    9    2.7    0    0    1    1.00904652    -3.21417434    63    1    1.07937    0.952381;
    124    1    8.9    -4    0    0    1    1.04662494    -11.8828128    90    1    1.06667    0.977778;
    125    1    4.8    -3.1    0    0    1    1.02471619    -2.91947678    63    1    1.07937    0.952381;
    126    1    -0.3    0.5    0    0    1    1.04145852    -13.7305478    63    1    1.06349    0.936508;
    127    1    6.5    0.4    0    0    1    1.02831018    -8.61875164    63    1    1.04762    0.952381;
    128    1    13.9    5.6    0    0    1    1.02274397    -10.5610725    63    1    1.06349    0.968254;
    129    1    18.8    14.3    0    0    1    1.02016251    -9.33723889    63    1    1.06349    0.968254;
    130    1    0    0    0    0    1    1.04921513    -7.93926371    225    1    1.08444    1.00889;
    131    1    82    2    0    0    1    1.04584548    -17.3837086    225    1    1.08444    1.00889;
    132    2    11.9    0    0    0    1    1.03649561    -16.7268249    90    1    1.07778    0.922222;
    133    1    1.3    0.3    0    0    1    1.01929338    -7.19994629    63    1    1.04762    0.952381;
    134    1    71.7    15.7    0    0    1    1.06157111    -5.06341613    225    1    1.08889    1.00444;
    135    1    0    0    0    0    1    1.06882348    -6.07404253    225    1    1.08889    1.00444;
    136    1    18.8    2.3    0    0    1    1.02593326    -14.4616126    90    1    1.07778    0.977778;
    137    2    13.4    -9.1    0    0    1    1.01392935    -23.705382    63    1    1.06349    0.968254;
    138    1    0    0    0    0    1    1.00852224    -20.1381423    150    1    1.08    0.966667;
    139    1    8.6    -1    0    0    1    1.03758816    -16.3866761    63    1    1.07937    0.920635;
    140    1    0    0    0    0    1    1.06041212    -13.6876805    225    1    1.08889    1;
    141    1    0    0    0    0    1    1.06920268    -10.9773716    380    1    1.10526    1.05263;
    142    1    15.8    1.3    0    0    1    0.993218311    -7.19046283    63    1    1.07937    0.952381;
    143    1    0    0    0    0    1    1.03344899    -3.6229034    225    1    1.08889    0.986667;
    144    1    0    0    0    -64    1    1.0659952    1.34450935    20    1    1.15    0.8;
    145    1    21.2    10    0    0    1    1.06703974    -1.71860329    90    1    1.11111    0.955556;
    146    1    25.6    6.2    0    0    1    1.07075012    1.952524    225    1    1.08889    0.968889;
    147    1    0    0    0    0    1    1.07758521    4.64487201    380    1    1.10526    1;
    148    1    25    3.6    0    0    1    1.03532329    -16.8093848    63    1    1.06349    0.936508;
    149    1    6.3    2.2    0    0    1    1.02381475    -13.1877557    63    1    1.06349    0.936508;
    150    1    17.9    5.1    0    0    1    1.01331738    -14.2980128    90    1    1.06667    0.977778;
    151    1    41.9    5.6    0    0    1    1.02634692    -15.2130644    63    1    1.06349    0.936508;
    152    1    0    0    0    0    1    1.01187765    -23.3873021    63    1    1.06349    0.968254;
    153    1    34.2    5.9    0    7.7    1    1.01182713    -22.1035242    63    1    1.06349    0.968254;
    154    1    20.4    0.6    0    0    1    1.0281624    -12.3130526    63    1    1.06349    0.936508;
    155    1    0    0    0    0    1    1.05261113    -8.77049232    225    1    1.08889    0.933333;
    156    2    0    0    0    0    1    1.03932857    -22.8468447    63    1    1.07937    0.920635;
    157    1    0    0    0    0    1    1.01185953    -23.3890777    63    1    1.06349    0.968254;
    158    1    -0.1    -2.1    0    0    1    0.893491038    -15.6780436    45    1    1    0.888889;
    159    2    0    0    0    0    1    0.942183558    -13.0982007    45    1    1    0.888889;
    160    1    0    0    0    0    1    1.01193391    -17.4894114    63    1    1.06349    0.936508;
    161    1    29.5    2.3    0    0    1    1.07500358    2.21823483    225    1    1.08889    0.888889;
    162    1    31.5    7.4    0    0    1    1.07478904    2.21508383    225    1    1.08889    0.888889;
    163    1    0.4    -1.6    0    0    1    1.03081955    -5.92763746    90    1    1.06667    0.977778;
    164    1    0    0    0    0    1    0.999091093    -2.50402068    63    1    1.07937    0.952381;
    165    1    0    0    0    0    1    0.999091093    -2.50402068    63    1    1.07937    0.952381;
    166    1    11.3    -3.9    0    0    1    1.06522258    -9.79631289    20    1    1.15    0.8;
    167    1    5.8    1.4    0    0    1    1.02592697    -13.4986431    90    1    1.06667    0.977778;
    168    1    7.8    -0.9    0    0    1    1.02693912    -13.565118    90    1    1.06667    0.977778;
    169    1    0    0    0    0    1    1.06520036    -9.79138712    225    1    1.08642    1.00444;
    170    1    9.1    -1.1    0    0    1    1.03823037    -13.7614681    90    1    1.06667    0.977778;
    171    1    60    6.1    0    0    1    1.05236218    -8.60285854    90    1    1.07778    0.977778;
    172    1    21.4    -1.8    0    0    1    1.04408104    -10.2437651    90    1    1.07778    0.977778;
    173    1    0    0    0    0    1    1.07038066    -6.87883833    225    1    1.08889    1.00444;
    174    1    26.6    6.6    0    0    1    1.08555024    -0.155322588    90    1    1.08889    0.933333;
    175    1    35.7    -1.5    0    0    1    1.08775688    -2.42235932    90    1    1.11111    0.955556;
    176    1    0    0    0    0    1    1.0331185    -20.4221494    63    1    1.07937    0.920635;
    177    1    0    0    0    0    1    1.03451591    -17.970476    63    1    1.07937    0.920635;
    178    2    0    0    0    0    1    1.09880739    -18.9820262    150    1    1.1    0.9;
    179    1    0    0    0    0    1    1.06825259    -6.11639028    225    1    1.08889    1.00444;
    180    1    0    0    0    0    1    1.06825281    -6.11639148    225    1    1.08889    1.00444;
    181    1    0    0    0    -32    1    0.987946436    -8.7433999    20    1    1.15    0.8;
    182    1    0    0    0    -32    1    1.02097782    -8.69464344    20    1    1.15    0.8;
    183    1    0    0    0    0    1    1.0283818    -8.61223382    63    1    1.04762    0.952381;
    184    1    0    0    0    -80    1    1.06825131    -6.11638335    225    1    1.08889    1.00444;
    185    1    12.1    -5.9    0    0    1    1.0499366    -20.2715743    63    1    1.07937    0.920635;
    186    1    16    3.1    0    0    1    1.0344436    -8.31367592    63    1    1.06349    0.936508;
    187    1    5.4    0.3    0    0    1    1.01222621    -10.4506069    63    1    1.07937    0.952381;
    188    1    3    0.4    0    0    1    1.04326306    -3.89415499    90    1    1.07778    0.977778;
    189    1    21.9    2.4    0    0    1    0.987348913    -7.87646482    63    1    1.07937    0.952381;
    190    1    1.4    -0.7    0    0    1    1.03239921    -4.9093586    90    1    1.06667    0.977778;
    191    2    0    0    0    0    1    1.06384611    -21.8666208    63    1    1.07937    0.920635;
    192    1    12.5    1.1    0    0    1    1.05728222    -18.2690416    63    1    1.07937    0.920635;
    193    2    0    0    0    0    1    0.931563205    -14.4272429    45    1    1    0.888889;
    194    1    12.7    -1.3    0    0    1    1.04019125    -14.0138906    90    1    1.06667    0.977778;
    195    1    7.3    -1.4    0    0    1    1.04438472    -19.1701949    63    1    1.07937    0.920635;
    196    1    7.7    5.3    0    0    1    1.06796024    -5.20256594    225    1    1.08889    1.00444;
    197    1    1.4    -3.2    0    0    1    1.06034118    -20.2466052    63    1    1.07937    0.920635;
    198    1    0    0    0    0    1    1.08912074    -5.12051408    63    1    1.09743    0.952381;
    199    1    0    0    0    0    1    1.08912222    -5.12055667    63    1    1.09743    0.952381;
    200    1    25    -4.9    0    0    1    1.0414184    -23.6733462    63    1    1.07937    0.920635;
    201    1    8.5    -2.4    0    0    1    1.03638337    -18.0473499    63    1    1.07937    0.920635;
    202    1    9.4    0.4    0    0    1    1.01106453    -18.686536    90    1    1.06667    0.977778;
    203    1    0    0    0    0    1    1.072293    -18.1735095    225    1    1.08889    1;
    204    1    52.5    20.6    0    0    1    1.06462409    0.531276057    225    1    1.08889    0.888889;
    205    1    34.3    -1.4    0    0    1    1.01434155    -25.7059673    63    1    1.06349    0.968254;
    206    1    24.7    4.7    0    0    1    1.07961084    2.18851746    90    1    1.1    0.944444;
    207    1    0    0    0    0    1    1.07625328    5.02333866    225    1    1.08889    0.968889;
    208    1    0    0    0    0    1    1.08292542    8.18436269    380    1    1.10526    1;
    209    1    42    2.2    0    0    1    1.02125577    -24.086185    63    1    1.06349    0.968254;
    210    1    26.8    -0.4    0    0    1    0.999459712    -11.6079895    63    1    1.06349    0.968254;
    211    1    12    -2    0    0    1    1.04375881    -3.52607525    90    1    1.07778    0.977778;
    212    1    2.9    1.3    0    0    1    1.02945016    -18.9821248    63    1    1.06349    0.968254;
    213    1    42.7    6.6    0    0    1    1.00123524    -16.6886391    63    1    1.06349    0.968254;
    214    1    29.7    13.3    0    0    1    1.00126227    -16.5334106    63    1    1.06349    0.968254;
    215    1    0    0    0    0    1    1.04600215    -16.4774396    225    1    1.08444    1.00889;
    216    1    0    0    0    0    1    1.04593367    -16.4605492    225    1    1.08444    1.00889;
    217    1    33.1    2    0    0    1    1.03644471    -11.2022327    90    1    1.07778    0.977778;
    218    1    0    0    0    0    1    1.06073724    -8.40989128    225    1    1.08889    1.00444;
    219    1    15.4    -7.4    0    0    1    1.01859764    -1.84564383    63    1    1.06349    0.952381;
    220    1    23.5    -0.6    0    0    1    1.01717323    -11.2818531    90    1    1.06667    0.977778;
    221    1    0.9    -0.9    0    0    1    1.04522408    -5.48419136    90    1    1.06667    0.977778;
    222    1    8.8    -1.3    0    0    1    1.03578625    -13.5623004    90    1    1.06667    0.977778;
    223    1    11    1.5    0    0    1    1.00964127    4.43488066    63    1    1.07937    0.952381;
    224    1    14.1    -11.3    0    0    1    1.03018044    -10.3307188    63    1    1.06349    0.936508;
    225    1    0    0    0    0    1    1.07319903    -8.12089208    225    1    1.08889    0.933333;
    226    1    32    -2.3    0    0    1    1.02973441    -18.7520958    63    1    1.07937    0.920635;
    227    2    0    0    0    0    1    1.0987573    -18.9810541    150    1    1.1    0.9;
    228    1    75.7    34.1    0    0    1    1.04101279    -17.9084552    225    1    1.08444    1.00889;
    229    1    74.7    49.1    0    0    1    1.04077373    -17.9050773    225    1    1.08444    1.00889;
    230    1    4    0.2    0    0    1    0.987892314    -33.6024603    63    1    1.06349    0.952381;
    231    1    9.9    -2    0    0    1    0.987458231    -34.2442033    63    1    1.06349    0.952381;
    232    1    14.6    -5.1    0    0    1    1.04953143    -15.890241    63    1    1.07937    0.920635;
    233    1    0    0    0    0    1    1.04260924    -17.7288854    225    1    1.08889    0.977778;
    234    1    6    -2.4    0    0    1    1.03754985    -13.2844831    90    1    1.06667    0.977778;
    235    1    6.6    1.5    0    0    1    1.0279125    -1.45126071    90    1    1.08889    0.933333;
    236    1    0    0    0    0    1    1.07341857    -2.31155895    20    1    1.15    0.8;
    237    1    21.9    6.1    0    0    1    1.07341857    -2.31155895    90    1    1.08889    0.933333;
    238    1    15    2.4    0    0    1    1.07011607    0.331061828    225    1    1.08889    0.888889;
    239    1    19    -0.8    0    0    1    1.06017451    -2.76357133    90    1    1.07778    0.922222;
    240    1    37.4    1    0    0    1    1.01240671    -14.6718351    63    1    1.06349    0.936508;
    241    1    19    -2    0    0    1    1.02693189    -8.35490187    90    1    1.06667    0.977778;
    242    1    43.3    2.4    0    0    1    0.991434608    -37.8163189    63    1    1.06349    0.952381;
    243    1    32.9    4.7    0    0    1    1.05243066    -21.3676465    63    1    1.07937    0.920635;
    244    1    35.5    0.5    0    0    1    1.03386962    -15.3214739    90    1    1.07778    0.922222;
    245    1    40.1    4.7    0    0    1    1.01295138    -23.9192105    63    1    1.06349    0.968254;
    246    1    21.9    -5.1    0    0    1    1.03863226    -21.4912429    63    1    1.07937    0.920635;
    247    1    43.9    2.5    0    0    1    1.03022504    -17.3082976    90    1    1.07778    0.922222;
    248    1    10.7    0.9    0    0    1    1.01726684    -18.6499762    63    1    1.07937    0.920635;
    249    2    14.2    2.8    0    0    1    0.987568853    -13.1123985    63    1    1.06349    0.936508;
    250    1    0    0    0    0    1    1.02613273    -11.4171967    225    1    1.08889    0.933333;
    251    1    22.6    5.6    0    0    1    1.05013964    -5.14154398    225    1    1.08889    1.00444;
    252    1    19.5    -2.3    0    0    1    1.04442414    -23.3015905    63    1    1.07937    0.920635;
    253    1    20.5    -6.8    0    0    1    1.01101744    -13.3809447    63    1    1.07937    0.952381;
    254    1    5.6    0.3    0    0    1    1.01837806    -12.5056788    90    1    1.06667    0.977778;
    255    1    7.5    -3.1    0    0    1    1.03483957    -5.37219858    90    1    1.06667    0.977778;
    256    1    42.9    4.8    0    0    1    1.03676335    -7.77729009    63    1    1.07937    0.952381;
    257    1    13.6    -0.8    0    0    1    1.03157691    -13.2835395    63    1    1.07937    0.952381;
    258    1    7.5    1.8    0    0    1    1.01994436    -11.7479569    63    1    1.06349    0.936508;
    259    2    1.7    0    0    0    1    1.03537121    -19.0140259    63    1    1.07937    0.920635;
    260    1    0    0    0    0    1    1.0728808    -18.2750543    225    1    1.08889    1;
    261    2    0    0    0    0    1    1.04882248    -14.6548589    90    1    1.07778    0.922222;
    262    1    27.8    0.5    0    0    1    1.03878801    -5.83299271    63    1    1.07937    0.952381;
    263    1    0    0    0    0    1    1.07126712    -3.95548028    225    1    1.08889    0.986667;
    264    2    0    0    0    0    1    1.02107364    -24.7998989    63    1    1.07937    0.920635;
    265    1    0    0    0    80    1    1.07930574    2.31654018    225    1    1.08889    0.888889;
    266    1    0    0    0    0    1    1.06929851    1.47857235    225    1    1.08889    0.888889;
    267    1    0    0    0    0    1    1.07232167    4.98611259    380    1    1.10526    1.01316;
    268    1    0    0    0    0    1    1.0173234    -6.564096    63    1    1.04762    0.952381;
    269    1    19.1    2    0    -80    1    1.06404583    -4.24787187    225    1    1.08889    1.00444;
    270    1    47.2    1.7    0    0    1    1.07127692    -4.25064204    225    1    1.08889    1.00444;
    271    1    10.7    10.5    0    0    1    1.00652927    -15.1803988    63    1    1.07937    0.920635;
    272    1    18.5    -1.3    0    0    1    1.0230576    -23.1936433    63    1    1.07937    0.920635;
    273    1    0    0    0    0    1    1.04625342    -9.71367283    225    1    1.08889    0.977778;
    274    1    0    0    0    0    1    1.04639101    -9.71415477    225    1    1.08889    0.977778;
    275    1    10    6    0    0    1    1.02989832    -13.8624823    63    1    1.06349    0.968254;
    276    1    49.7    0.7    0    0    1    1.04482194    -10.5440997    225    1    1.08444    1.00889;
    277    1    36.5    1.2    0    0    1    1.08782617    -2.32935976    90    1    1.1    0.944444;
    278    1    0    0    0    0    1    1.06689343    -6.71936075    225    1    1.08668    1.00444;
    279    1    0    0    0    0    1    1.06971212    -1.45718603    380    1    1.10263    1.04211;
    280    1    3.9    3.2    0    0    1    1.02539728    -9.40885209    90    1    1.06667    0.977778;
    281    1    0.5    3.1    0    0    1    1.06673108    -6.77185472    225    1    1.08655    1.00444;
    282    1    15.9    -1.2    0    0    1    1.00281796    -25.7750206    63    1    1.06349    0.936508;
    283    1    36.5    4.5    0    0    1    1.03305321    -11.6268573    90    1    1.07778    0.977778;
    284    1    10.8    0    0    0    1    1.00617126    -5.17194184    63    1    1.07937    0.952381;
    285    2    0    0    0    0    1    0.987569338    -13.1124101    63    1    1.06349    0.936508;