function mpc = case_ieee30_res
%CASE_IEEE30_RES

%% MATPOWER Case Format : Version 2
mpc.version = '2';

%%-----  Power Flow Data  -----%%
%% system MVA base
mpc.baseMVA = 100;

%% bus data
%	bus_i	type	Pd	Qd	Gs	Bs	area	Vm	Va	baseKV	zone	Vmax	Vmin
mpc.bus = [
	1	3	0	0	0	0	1	1.06	0	132	1	1.06	0.94;
	2	2	21.7	12.7	0	0	1	1.045	-5.37824301	132	1	1.06	0.94;
	3	1	2.4	1.2	0	0	1	1.02117768	-7.52865957	132	1	1.06	0.94;
	4	1	7.6	1.6	0	0	1	1.01230043	-9.27943239	132	1	1.06	0.94;
	5	2	94.2	19	0	0	1	1.01	-14.1487671	132	1	1.06	0.94;
	6	1	0	0	0	0	1	1.01062575	-11.0550233	132	1	1.06	0.94;
	7	1	22.8	10.9	0	0	1	1.00259708	-12.8523188	132	1	1.06	0.94;
	8	2	30	30	0	0	1	1.01	-11.7973854	132	1	1.06	0.94;
	9	1	0	0	0	0	1	1.05113171	-14.097969	1	1	1.06	0.94;
	10	1	5.8	2	0	19	1	1.04537895	-15.6881732	33	1	1.06	0.94;
	11	2	0	0	0	0	1	1.082	-14.097969	11	1	1.06	0.94;
	12	1	11.2	7.5	0	0	1	1.05733893	-14.9329077	33	1	1.06	0.94;
	13	2	0	0	0	0	1	1.071	-14.9329077	11	1	1.06	0.94;
	14	1	6.2	1.6	0	0	1	1.04250781	-15.824522	33	1	1.06	0.94;
	15	1	8.2	2.5	0	0	1	1.03791588	-15.9163633	33	1	1.06	0.94;
	16	1	3.5	1.8	0	0	1	1.04462584	-15.5154241	33	1	1.06	0.94;
	17	1	9	5.8	0	0	1	1.04015025	-15.8499478	33	1	1.06	0.94;
	18	1	3.2	0.9	0	0	1	1.02839629	-16.5301888	33	1	1.06	0.94;
	19	1	9.5	3.4	0	0	1	1.02589993	-16.7037223	33	1	1.06	0.94;
	20	1	2.2	0.7	0	0	1	1.02998673	-16.5071925	33	1	1.06	0.94;
	21	1	17.5	11.2	0	0	1	1.03298219	-16.1306668	33	1	1.06	0.94;
	22	1	0	0	0	0	1	1.03351363	-16.1164374	33	1	1.06	0.94;
	23	1	3.2	1.6	0	0	1	1.02742898	-16.3066259	33	1	1.06	0.94;
	24	1	8.7	6.7	0	4.3	1	1.02184577	-16.4827871	33	1	1.06	0.94;
	25	1	0	0	0	0	1	1.01761861	-16.0545591	33	1	1.06	0.94;
	26	1	3.5	2.3	0	0	1	0.999946403	-16.473981	33	1	1.06	0.94;
	27	1	0	0	0	0	1	1.02353851	-15.53008	33	1	1.06	0.94;
	28	1	0	0	0	0	1	1.00710105	-11.6772967	132	1	1.06	0.94;
	29	1	2.4	0.9	0	0	1	1.00370578	-16.759313	33	1	1.06	0.94;
	30	1	10.6	1.9	0	0	1	0.992234799	-17.6416131	33	1	1.06	0.94;
];

%% generator data
%	bus	Pg	Qg	Qmax	Qmin	Vg	mBase	status	Pmax	Pmin	Pc1	Pc2	Qc1min	Qc1max	Qc2min	Qc2max	ramp_agc	ramp_10	ramp_30	ramp_q	apf
mpc.gen = [
	1	260.956948	-20.4178835	10	0	1.06	100	1	360.2	0	0	0	0	0	0	0	0	0	0	0	0;
	2	40	56.0694618	50	-40	1.045	100	1	140	0	0	0	0	0	0	0	0	0	0	0	0;
	5	0	35.6587907	40	-40	1.01	100	1	100	0	0	0	0	0	0	0	0	0	0	0	0;
	8	0	36.1112665	40	-10	1.01	100	1	100	0	0	0	0	0	0	0	0	0	0	0	0;
	11	0	16.057446	24	-6	1.082	100	1	100	0	0	0	0	0	0	0	0	0	0	0	0;
	13	0	10.4507186	24	-6	1.071	100	1	100	0	0	0	0	0	0	0	0	0	0	0	0;
];

%% branch data
%	fbus	tbus	r	x	b	rateA	rateB	rateC	ratio	angle	status	angmin	angmax	Pf	Qf	Pt	Qt
mpc.branch = [
	1	2	0.0192	0.0575	0.0528	0	0	0	0	0	1	-360	360	173.3071	-24.7028	-168.0940	34.4658;
	1	3	0.0452	0.1652	0.0408	0	0	0	0	0	1	-360	360	87.6498	4.2849	-84.5419	2.6546;
	2	4	0.057	0.1737	0.0368	0	0	0	0	0	1	-360	360	43.6527	4.7496	-42.6342	-5.5408;
	3	4	0.0132	0.0379	0.0084	0	0	0	0	0	1	-360	360	82.1419	-3.8546	-81.2863	5.4427;
	2	5	0.0472	0.1983	0.0418	0	0	0	0	0	1	-360	360	82.3613	2.7817	-79.4183	5.1685;
	2	6	0.0581	0.1763	0.0374	0	0	0	0	0	1	-360	360	60.3800	1.3724	-58.4341	0.5802;
	4	6	0.0119	0.0414	0.009	0	0	0	0	0	1	-360	360	72.1273	-15.9120	-71.4955	17.1894;
	5	7	0.046	0.116	0.0204	0	0	0	0	0	1	-360	360	-14.7817	11.4903	14.9510	-13.1291;
	6	7	0.0267	0.082	0.017	0	0	0	0	0	1	-360	360	38.1321	-2.7814	-37.7510	2.2291;
	6	8	0.012	0.042	0.009	0	0	0	0	0	1	-360	360	29.5631	-7.1965	-29.4550	6.6559;
	6	9	0	0.208	0	0	0	0	0.978	0	1	-360	360	27.7212	-8.0930	-27.7212	9.7174;
	6	10	0	0.556	0	0	0	0	0.969	0	1	-360	360	15.8397	0.1865	-15.8397	1.0961;
	9	11	0	0.208	0	0	0	0	0	0	1	-360	360	-0.0000	-15.5993	0.0000	16.0574;
	9	10	0	0.11	0	0	0	0	0	0	1	-360	360	27.7212	5.8819	-27.7212	-5.0824;
	4	12	0	0.256	0	0	0	0	0.932	0	1	-360	360	44.1932	14.4100	-44.1932	-9.7214;
	12	13	0	0.14	0	0	0	0	0	0	1	-360	360	-0.0000	-10.3174	0.0000	10.4507;
	12	14	0.1231	0.2559	0	0	0	0	0	0	1	-360	360	7.8575	2.4003	-7.7832	-2.2458;
	12	15	0.0662	0.1304	0	0	0	0	0	0	1	-360	360	17.8918	6.7899	-17.6749	-6.3628;
	12	16	0.0945	0.1987	0	0	0	0	0	0	1	-360	360	7.2439	3.3486	-7.1901	-3.2354;
	14	15	0.221	0.1997	0	0	0	0	0	0	1	-360	360	1.5832	0.6458	-1.5772	-0.6404;
	16	17	0.0524	0.1923	0	0	0	0	0	0	1	-360	360	3.6901	1.4354	-3.6826	-1.4077;
	15	18	0.1073	0.2185	0	0	0	0	0	0	1	-360	360	6.0168	1.5953	-5.9782	-1.5167;
	18	19	0.0639	0.1292	0	0	0	0	0	0	1	-360	360	2.7782	0.6167	-2.7733	-0.6068;
	19	20	0.034	0.068	0	0	0	0	0	0	1	-360	360	-6.7267	-2.7932	6.7438	2.8275;
	10	20	0.0936	0.209	0	0	0	0	0	0	1	-360	360	9.0254	3.7096	-8.9438	-3.5275;
	10	17	0.0324	0.0845	0	0	0	0	0	0	1	-360	360	5.3317	4.4294	-5.3174	-4.3923;
	10	21	0.0348	0.0749	0	0	0	0	0	0	1	-360	360	15.7856	10.0109	-15.6743	-9.7714;
	10	22	0.0727	0.1499	0	0	0	0	0	0	1	-360	360	7.6183	4.6000	-7.5656	-4.4914;
	21	22	0.0116	0.0236	0	0	0	0	0	0	1	-360	360	-1.8257	-1.4286	1.8263	1.4298;
	15	23	0.1	0.202	0	0	0	0	0	0	1	-360	360	5.0353	2.9079	-5.0039	-2.8445;
	22	24	0.115	0.179	0	0	0	0	0	0	1	-360	360	5.7393	3.0616	-5.6938	-2.9907;
	23	24	0.132	0.27	0	0	0	0	0	0	1	-360	360	1.8039	1.2445	-1.7979	-1.2322;
	24	25	0.1885	0.3292	0	0	0	0	0	0	1	-360	360	-1.2083	2.0128	1.2182	-1.9954;
	25	26	0.2544	0.38	0	0	0	0	0	0	1	-360	360	3.5446	2.3667	-3.5000	-2.3000;
	25	27	0.1093	0.2087	0	0	0	0	0	0	1	-360	360	-4.7628	-0.3712	4.7869	0.4172;
	28	27	0	0.396	0	0	0	0	0.968	0	1	-360	360	18.0689	5.0360	-18.0689	-3.7488;
	27	29	0.2198	0.4153	0	0	0	0	0	0	1	-360	360	6.1899	1.6688	-6.1037	-1.5059;
	27	30	0.3202	0.6027	0	0	0	0	0	0	1	-360	360	7.0920	1.6628	-6.9298	-1.3575;
	29	30	0.2399	0.4533	0	0	0	0	0	0	1	-360	360	3.7037	0.6059	-3.6702	-0.5425;
	8	28	0.0636	0.2	0.0428	0	0	0	0	0	1	-360	360	-0.5450	-0.5446	0.5468	-3.8030;
	6	28	0.0169	0.0599	0.013	0	0	0	0	0	1	-360	360	18.6735	0.1147	-18.6157	-1.2330;
];

%%-----  OPF Data  -----%%
%% generator cost data
%	1	startup	shutdown	n	x1	y1	...	xn	yn
%	2	startup	shutdown	n	c(n-1)	...	c0
mpc.gencost = [
	2	0	0	3	0.0384319754	20	0;
	2	0	0	3	0.25	20	0;
	2	0	0	3	0.01	40	0;
	2	0	0	3	0.01	40	0;
	2	0	0	3	0.01	40	0;
	2	0	0	3	0.01	40	0;
];

%% bus names
mpc.bus_name = {
	'Glen Lyn 132';
	'Claytor  132';
	'Kumis    132';
	'Hancock  132';
	'Fieldale 132';
	'Roanoke  132';
	'Blaine   132';
	'Reusens  132';
	'Roanoke  1.0';
	'Roanoke   33';
	'Roanoke   11';
	'Hancock   33';
	'Hancock   11';
	'Bus 14    33';
	'Bus 15    33';
	'Bus 16    33';
	'Bus 17    33';
	'Bus 18    33';
	'Bus 19    33';
	'Bus 20    33';
	'Bus 21    33';
	'Bus 22    33';
	'Bus 23    33';
	'Bus 24    33';
	'Bus 25    33';
	'Bus 26    33';
	'Cloverdle 33';
	'Cloverdle132';
	'Bus 29    33';
	'Bus 30    33';
};
