function mpc = case6495rte_resqlim
%CASE6495RTE_RESQLIM

%% MATPOWER Case Format : Version 2
mpc.version = '2';

%%-----  Power Flow Data  -----%%
%% system MVA base
mpc.baseMVA = 100;

%% bus data
%	bus_i	type	Pd	Qd	Gs	Bs	area	Vm	Va	baseKV	zone	Vmax	Vmin
mpc.bus = [
	1	1	0	0	0	0	1	0.979861563	-10.3130404	45	1	1	0.888889;
	2	1	0	0	0	0	1	1.03704124	-10.3049688	63	1	1.06349	0.936508;
	3	1	13.1	2.6	0	0	1	1.0241922	-12.7997954	63	1	1.07937	0.952381;
	4	1	49.2	3.4	0	0	1	1.0391206	-24.0678562	90	1	1.08889	0.933333;
	5	1	11	0	0	0	1	1.01843633	-52.5425662	63	1	1.06349	0.952381;
	6	1	13	4.3	0	0	1	1.02244097	-21.1804304	63	1	1.07937	0.920635;
	7	1	1.2	0.7	0	0	1	1.0493527	-23.2447162	63	1	1.07937	0.920635;
	8	1	24.6	13.1	0	0	1	1.04806184	-17.3214145	225	1	1.08889	0.888889;
	9	1	14.9	0	0	0	1	1.04515169	-17.6581054	63	1	1.06349	0.936508;
	10	1	0	0	0	0	1	1.03353979	-22.9241564	90	1	1.07778	0.922222;
	11	1	30.7	-2	0	0	1	1.03353957	-22.9241539	90	1	1.07778	0.922222;
	12	1	0	0	0	0	1	1.01653926	1.07380158	63	1	1.07937	0.952381;
	13	1	0	0	0	0	1	1.05873917	-3.59447901	380	1	1.10263	1.05313;
	14	1	52.7	13.4	0	30.4	1	1.06669221	-31.1908818	90	1	1.07778	0.977778;
	15	1	0	0	0	0	1	1.02753335	-23.2574318	63	1	1.07937	0.920635;
	16	1	12.5	-0.6	0	0	1	1.03039634	-28.9234047	63	1	1.07937	0.920635;
	17	1	10.9	0.2	0	0	1	1.04754998	-31.3068328	90	1	1.06667	0.977778;
	18	1	0	0	0	0	1	0.936292463	-5.00684715	45	1	1	0.888889;
	19	1	0	0	0	0	1	1.03073013	-20.2728139	63	1	1.06349	0.936508;
	20	1	3.9	-18.2	0	0	1	0.937073214	-5.04163873	45	1	1	0.888889;
	21	1	6.3	-2.5	0	0	1	1.03825431	-19.665887	90	1	1.06667	0.977778;
	22	1	17.3	0.8	0	0	1	1.02387419	-12.9680832	63	1	1.07937	0.952381;
	23	1	24.4	1.4	0	0	1	1.01420782	-10.1583533	63	1	1.06349	0.936508;
	24	1	16.7	-1.3	0	0	1	1.04168358	-22.4886577	90	1	1.11111	0.955556;
	25	1	51.1	-4	0	0	1	1.07631008	-18.8785732	90	1	1.1	0.944444;
	26	1	32.4	5	0	0	1	1.03481195	-25.0604271	90	1	1.06667	0.977778;
	27	1	0	0	0	0	1	1.06630022	-20.4699668	225	1	1.08444	1.00444;
	28	1	0	-0.2	0	0	1	1.03263622	-20.1858309	63	1	1.07937	0.952381;
	29	1	75	9.3	0	0	1	0.993785911	-23.0939595	63	1	1.06349	0.968254;
	30	1	37.6	3.3	0	0	1	1.03308859	-23.1301601	90	1	1.08889	0.933333;
	31	1	0	0	0	0	1	1.03614424	-8.93635622	63	1	1.06349	0.936508;
	32	1	0	0	0	0	1	1.04457075	-3.74744475	150	1	1.10667	0.9;
	33	1	0	0	0	0	1	1.05392706	-6.15458807	225	1	1.08889	0.933333;
	34	1	0	0	0	0	1	1.04964769	-5.48418787	225	1	1.08889	0.933333;
	35	1	0	0	0	0	1	1.07099734	-4.93554107	380	1	1.10526	1.03947;
	36	1	0	0	0	0	1	1.07295256	-3.84552775	380	1	1.10526	1.03947;
	37	1	2.4	4.7	0	0	1	1.01529364	-25.5742661	63	1	1.07937	0.920635;
	38	1	8	3	0	0	1	1.03505525	-20.7326937	63	1	1.09524	0.936508;
	39	1	40.6	-4.9	0	0	1	1.01298502	-38.8229054	90	1	1.07778	0.977778;
	40	1	34.7	5.1	0	0	1	1.05488455	-29.4386295	90	1	1.07778	0.977778;
	41	1	0	0	0	0	1	1.07357785	-25.806634	225	1	1.09152	1.00444;
	42	1	0	0	0	0	1	1.12154121	4.54160387	63	1	1.12834	0.952381;
	43	1	3.3	2.7	0	0	1	1.04694247	-26.6364199	90	1	1.07778	0.977778;
	44	1	15.2	1.6	0	0	1	1.0269221	-49.796639	63	1	1.06349	0.952381;
	45	1	3.8	0.8	0	0	1	1.02278828	-33.3673736	90	1	1.06667	0.977778;
	46	1	0	0	0	0	1	1.03285678	-15.0952819	63	1	1.06349	0.936508;
	47	1	0	0	0	0	1	1.02751758	-12.083344	63	1	1.06349	0.936508;
	48	1	38.6	3.9	0	0	1	1.03510469	-23.9177231	90	1	1.07778	0.922222;
	49	1	9.9	-2.6	0	0	1	1.03677236	-15.7923966	63	1	1.06349	0.936508;
	50	1	0	0	0	0	1	1.07013717	-13.3837304	63	1	1.07458	0.936508;
	51	1	0	0	0	0	1	1.05494842	-8.6621616	225	1	1.08889	0.933333;
	52	1	8	3.5	0	0	1	1.03474011	-34.8041182	90	1	1.06667	0.977778;
	53	1	0.1	-1.2	0	0	1	1.00726621	-27.0788016	63	1	1.04762	0.952381;
	54	1	-0.6	1.2	0	0	1	1.03869192	-17.7616413	90	1	1.06667	0.977778;
	55	1	49	11.3	0	0	1	1.07362527	-28.4976395	225	1	1.08991	1.00444;
	56	1	78.6	22.5	0	0	1	1.06364067	-24.6748519	225	1	1.08889	1.00444;
	57	1	0	0	0	0	1	1.05780106	-18.9874369	63	1	1.07937	0.920635;
	58	1	146.7	32.5	0	0	1	1.07345584	-28.5127014	225	1	1.08975	1.00444;
	59	1	5.1	0.4	0	0	1	1.04792122	-11.1130571	63	1	1.07937	0.952381;
	60	1	0	0	0	0	1	1.03824374	-5.49114888	63	1	1.07937	0.952381;
	61	1	41.4	11.6	0	0	1	1.04075492	-7.47890272	63	1	1.07937	0.952381;
	62	1	0	0	0	0	1	1.02490801	-5.6025647	63	1	1.07937	0.952381;
	63	1	15.8	2	0	0	1	1.01095492	0.101827276	63	1	1.07937	0.952381;
	64	1	64.3	5.4	0	0	1	1.0656869	-16.4931651	225	1	1.08889	0.888889;
	65	1	12	2.9	0	0	1	1.05108276	-8.06749313	63	1	1.07937	0.952381;
	66	1	14.4	-6.8	0	0	1	1.04148358	-24.3134705	63	1	1.06349	0.936508;
	67	1	1	0	0	0	1	1.04132544	-20.4066116	63	1	1.07937	0.920635;
	68	1	48.7	3.8	0	0	1	1.02243753	-14.9956829	63	1	1.06349	0.936508;
	69	1	17.3	-1.6	0	0	1	1.04377984	-53.9180372	63	1	1.06349	0.952381;
	70	1	11.7	3.5	0	0	1	1.02101179	1.81257048	63	1	1.07937	0.952381;
	71	1	68.8	17.2	0	0	1	1.02185976	-27.5979332	63	1	1.04762	0.952381;
	72	1	0	0	0	0	1	1.07848535	-20.4016865	225	1	1.08892	1.00444;
	73	1	0	0	0	0	1	1.07848616	-20.4009209	225	1	1.08892	1.00444;
	74	1	53.3	-8.7	0	0	1	1.0661864	-16.3427416	225	1	1.08889	0.888889;
	75	1	25	1.6	0	0	1	1.04810234	-21.1391856	90	1	1.06667	0.977778;
	76	1	9	0.7	0	0	1	1.07508856	3.53917913	225	1	1.08889	0.986667;
	77	1	40.8	-1.5	0	0	1	1.02761149	-16.2911453	63	1	1.06349	0.936508;
	78	1	0	0	0	0	1	1.04009034	-26.2379745	63	1	1.07937	0.920635;
	79	1	0	0	0	0	1	1.01089357	-26.1409339	63	1	1.04762	0.952381;
	80	1	34.6	10.4	0	0	1	1.04920624	-25.8057619	225	1	1.08889	1.00444;
	81	1	34.6	9	0	0	1	1.04922568	-25.8056912	225	1	1.08889	1.00444;
	82	1	11.6	-0.2	0	0	1	1.03829238	-16.6786726	63	1	1.06349	0.936508;
	83	1	92.4	64.5	0	0	1	1.0585381	-26.2569794	225	1	1.08889	1.00444;
	84	1	1.4	-0.2	0	0	1	1.02532024	-12.4845775	63	1	1.06349	0.936508;
	85	1	1.8	-2	0	0	1	1.04825989	-16.0055616	63	1	1.06568	0.936508;
	86	1	44.9	3.7	0	0	1	1.03200116	-42.3257317	90	1	1.06667	0.977778;
	87	1	0	0	0	0	1	1.02468467	0.249078323	63	1	1.07937	0.952381;
	88	1	15.9	2	0	0	1	1.039885	-18.4531292	63	1	1.06349	0.936508;
	89	1	25.7	0.4	0	0	1	1.04286303	-29.1828284	90	1	1.07778	0.977778;
	90	1	0.4	-2.3	0	0	1	0.941075325	-5.71119843	45	1	1	0.888889;
	91	1	0	0	0	0	1	0.936292463	-5.00684715	45	1	1	0.888889;
	92	1	31.6	3.2	0	0	1	1.01470243	-18.9263859	63	1	1.06349	0.968254;
	93	1	2.2	-2.2	0	0	1	0.953321704	-7.66579588	45	1	1	0.888889;
	94	1	16.9	-4.6	0	0	1	1.04404852	-24.0115614	90	1	1.06667	0.977778;
	95	1	53.2	9.3	0	0	1	1.03650769	-34.6979683	90	1	1.06667	0.977778;
	96	1	1.2	0.1	0	0	1	1.05113282	-8.27100728	63	1	1.06349	0.936508;
	97	1	55	1.6	0	0	1	1.03780014	-23.8248688	63	1	1.07937	0.920635;
	98	1	7.7	-2.1	0	0	1	1.03246991	-19.2670371	63	1	1.07937	0.952381;
	99	1	31.9	5	0	0	1	1.04707988	-7.15390073	63	1	1.07937	0.952381;
	100	1	59.9	8.9	0	0	1	1.02095995	-14.0568066	63	1	1.06349	0.936508;
	101	1	17.1	0.1	0	0	1	1.01457224	-13.2923966	63	1	1.06349	0.936508;
	102	1	0	0	0	0	1	1.03206699	-14.7088723	63	1	1.07937	0.952381;
	103	1	13	-1.4	0	0	1	1.04142632	-5.85421356	63	1	1.07937	0.952381;
	104	1	0	0	0	0	1	1.07346917	-3.18042994	225	1	1.08889	0.986667;
	105	1	37.7	0.8	0	0	1	1.04756002	-14.9945577	225	1	1.08889	0.888889;
	106	1	56.3	8.2	0	0	1	1.05801724	-19.8248056	90	1	1.1	0.944444;
	107	1	107.4	13.9	0	0	1	1.04492564	-28.4143626	225	1	1.08444	1.00889;
	108	1	12.7	-3.9	0	0	1	1.05122977	-24.8575442	90	1	1.07778	0.977778;
	109	1	60.8	4.1	0	0	1	1.0487987	-12.4369797	63	1	1.06837	0.936508;
	110	1	0	0	0	0	1	1.03299813	-8.78090376	225	1	1.08889	0.933333;
	111	1	37.3	-7.4	0	0	1	1.00278029	-21.3514155	63	1	1.06349	0.968254;
	112	1	0	0	0	0	1	1.02230522	-27.2916329	63	1	1.04762	0.952381;
	113	1	0	0	0	0	1	1.05381883	-23.8079226	225	1	1.08889	1.00444;
	114	1	12.9	0.7	0	0	1	1.0469651	-11.6494314	63	1	1.06349	0.936508;
	115	1	0	0	0	0	1	1.05874835	-3.5945624	380	1	1.10526	1.05263;
	116	1	0	0	0	0	1	1.05874835	-3.5945624	380	1	1.10526	1.05263;
	117	1	12.8	-2.1	0	0	1	1.02299831	-18.2663545	63	1	1.07937	0.952381;
	118	1	2	0.8	0	0	1	1.05048378	-20.817027	90	1	1.06667	0.977778;
	119	1	40.3	3.7	0	0	1	1.01895229	-10.1309033	63	1	1.06349	0.936508;
	120	1	22	-2.3	0	0	1	1.01792694	-9.09754951	63	1	1.06349	0.936508;
	121	1	22.1	6.8	0	0	1	1.02375863	-25.6111017	63	1	1.07937	0.920635;
	122	3	0	0	0	0	1	1.038	-6.78268178	63	1	1.07937	0.952381;
	123	1	11	3.7	0	0	1	1.03589557	-6.90674564	63	1	1.07937	0.952381;
	124	1	8.9	-2.2	0	0	1	1.04523372	-27.3544386	90	1	1.06667	0.977778;
	125	1	11.6	-1.2	0	0	1	1.03233934	-13.5593308	63	1	1.07937	0.952381;
	126	1	0.4	0.3	0	0	1	1.05005416	-15.9755943	63	1	1.06349	0.936508;
	127	1	10.7	2.9	0	0	1	1.01278086	-29.969439	63	1	1.04762	0.952381;
	128	1	13.4	5	0	0	1	1.02100972	-11.2490011	63	1	1.06349	0.968254;
	129	1	17	12.8	0	0	1	1.01951433	-9.50779967	63	1	1.06349	0.968254;
	130	1	0	0	0	0	1	1.04891733	-8.67555419	225	1	1.08444	1.00889;
	131	1	110.7	4.4	0	0	1	1.04694889	-16.2149607	225	1	1.08444	1.00889;
	132	1	9.4	0	0	0	1	1.06663827	-17.1088373	90	1	1.07778	0.922222;
	133	1	2.5	-0.1	0	0	1	0.985364142	-29.7124564	63	1	1.04762	0.952381;
	134	1	101.1	28.6	0	0	1	1.03160335	-26.538556	225	1	1.08889	1.00444;
	135	1	0	0	0	0	1	1.07445117	-28.3270174	225	1	1.09072	1.00444;
	136	1	23.7	0.6	0	0	1	1.04296316	-37.6979845	90	1	1.07778	0.977778;
	137	2	8.1	-3.8	0	0	1	1.032	-12.8396646	63	1	1.06349	0.968254;
	138	1	0	0	0	0	1	1.05020937	-11.0249929	150	1	1.08	0.966667;
	139	1	15.7	4.1	0	0	1	1.03518096	-16.8840401	63	1	1.07937	0.920635;
	140	1	0	0	0	80	1	1.06058511	-13.1757609	225	1	1.08889	1;
	141	1	0	0	0	0	1	1.06857337	-9.75008556	380	1	1.10526	1.05263;
	142	1	12.5	1.1	0	0	1	1.05135167	-10.6746305	63	1	1.07937	0.952381;
	143	1	0	0	0	0	1	1.06915625	-6.26610893	225	1	1.08889	0.986667;
	144	1	8.9	2.5	0	0	1	1.04615085	-20.6689547	90	1	1.11111	0.955556;
	145	1	24	7.7	0	0	1	1.06711453	-16.2332702	225	1	1.08889	0.968889;
	146	1	0	0	0	0	1	1.07869024	-13.2061656	380	1	1.10526	1;
	147	1	28	4.6	0	0	1	1.04549966	-14.7383788	63	1	1.06349	0.936508;
	148	1	6.6	1.5	0	0	1	1.04441566	-12.0517068	63	1	1.06349	0.936508;
	149	1	15.9	4.2	0	0	1	1.04179287	-33.9651292	90	1	1.06667	0.977778;
	150	1	48.4	1	0	0	1	1.03439962	-9.43519106	63	1	1.06349	0.936508;
	151	1	0	0	0	0	1	0.985007915	-24.1906876	63	1	1.06349	0.968254;
	152	1	42.6	9.4	0	7.7	1	0.984890328	-22.9364071	63	1	1.06349	0.968254;
	153	1	26.9	-4.9	0	0	1	1.04033503	-10.7052758	63	1	1.06349	0.936508;
	154	1	0	0	0	0	1	1.06245123	-7.41429861	225	1	1.08889	0.933333;
	155	2	0	0	0	0	1	1.03755554	-20.9118794	63	1	1.07937	0.920635;
	156	1	0	0	0	0	1	0.9849605	-24.1957394	63	1	1.06349	0.968254;
	157	1	-1.4	-2.3	0	0	1	0.929746938	-9.02961808	45	1	1	0.888889;
	158	2	0	0	0	0	1	0.963	-8.45396527	45	1	1	0.888889;
	159	1	0	0	0	0	1	1.03314933	-11.8802579	63	1	1.06349	0.936508;
	160	1	39.6	5.7	0	0	1	1.05576487	-13.4880415	225	1	1.08889	0.888889;
	161	1	40.6	10.8	0	0	1	1.0555491	-13.4893318	225	1	1.08889	0.888889;
	162	1	-0.1	-1.2	0	0	1	1.02205413	-24.8991836	90	1	1.06667	0.977778;
	163	1	0	0	0	0	1	1.02270015	-6.38266453	63	1	1.07937	0.952381;
	164	1	0	0	0	0	1	1.02270015	-6.38266453	63	1	1.07937	0.952381;
	165	1	12.5	6.7	0	0	1	1.07326246	-29.5121822	20	1	1.15	0.8;
	166	1	8.1	-0.3	0	0	1	1.04132748	-33.6076328	90	1	1.06667	0.977778;
	167	1	8.3	-2	0	0	1	1.03939456	-34.0798058	90	1	1.06667	0.977778;
	168	1	0	0	0	0	1	1.07332385	-29.5072478	225	1	1.08444	1.00444;
	169	1	9.1	-0.5	0	0	1	1.03614151	-29.6297798	90	1	1.06667	0.977778;
	170	1	78.8	13.1	0	0	1	1.04409571	-29.4148574	90	1	1.07778	0.977778;
	171	1	26.3	-0.9	0	30	1	1.05856828	-32.3338372	90	1	1.07921	0.977778;
	172	1	0	0	0	0	1	1.0678681	-28.1623118	225	1	1.08889	1.00444;
	173	1	28.9	8.2	0	0	1	1.06995249	-17.8896431	90	1	1.08889	0.933333;
	174	1	54.8	9.7	0	0	1	1.07041414	-20.5870971	90	1	1.11111	0.955556;
	175	1	0	0	0	0	1	1.02625124	-20.3258062	63	1	1.07937	0.920635;
	176	2	0	0	0	0	1	1.09541437	-18.04821	150	1	1.1	0.9;
	177	1	0	0	0	0	1	1.06705062	-26.5549902	225	1	1.08889	1.00444;
	178	1	0	0	0	0	1	1.06705084	-26.5549914	225	1	1.08889	1.00444;
	179	1	0	0	0	0	1	1.01294366	-29.9597109	63	1	1.04762	0.952381;
	180	1	0	0	0	0	1	1.06704934	-26.5549833	225	1	1.08889	1.00444;
	181	1	14.2	-5	0	0	1	1.04411258	-25.6223199	63	1	1.07937	0.920635;
	182	1	15	4.1	0	0	1	1.04377904	-9.3161114	63	1	1.06349	0.936508;
	183	1	6.2	-0.7	0	0	1	1.03604592	-19.2927179	63	1	1.07937	0.952381;
	184	1	4	1.4	0	0	1	1.06394865	-26.0177965	90	1	1.07778	0.977778;
	185	1	28.1	2.7	0	0	1	1.04289637	-11.4881154	63	1	1.07937	0.952381;
	186	1	0.4	1.3	0	0	1	1.0288604	-23.4662892	90	1	1.06667	0.977778;
	187	2	0	0	0	0	1	1.05020184	-20.9054771	63	1	1.07937	0.920635;
	188	1	0	0	0	0	1	1.09705086	-19.1469305	63	1	1.10211	0.920635;
	189	1	16.4	2.1	0	0	1	1.0353011	-23.9965439	63	1	1.07937	0.920635;
	190	2	0	0	0	0	1	0.94996476	-6.90654884	45	1	1	0.888889;
	191	1	14.3	-1.2	0	0	1	1.03784442	-29.6864732	90	1	1.06667	0.977778;
	192	1	7.2	-2	0	0	1	1.05938402	-19.6063206	63	1	1.07937	0.920635;
	193	1	-0.3	0.8	0	0	1	1.05346977	-24.3161459	225	1	1.08889	1.00444;
	194	1	0.7	-2.2	0	0	1	1.05238487	-24.2249432	63	1	1.07937	0.920635;
	195	1	0	0	0	0	1	1.05789686	-26.6290772	63	1	1.07545	0.952381;
	196	1	0	0	0	0	1	1.0578983	-26.6291198	63	1	1.07546	0.952381;
	197	1	27.3	0.8	0	15	1	1.02031396	-31.8159058	63	1	1.07937	0.920635;
	198	1	10	-0.7	0	0	1	1.03626791	-21.1307605	63	1	1.07937	0.920635;
	199	1	11.4	1.5	0	0	1	1.02136635	-39.9925124	90	1	1.06667	0.977778;
	200	1	0	0	0	0	1	1.08312687	-22.2360891	225	1	1.08889	1;
	201	1	62.6	22.9	0	0	1	1.04422265	-15.3377924	225	1	1.08889	0.888889;
	202	1	48.1	0.6	0	0	1	0.989344524	-27.515385	63	1	1.06349	0.968254;
	203	1	23.4	3.7	0	0	1	1.06039343	-15.4193139	90	1	1.1	0.944444;
	204	1	0	0	0	0	1	1.06969851	-11.8970695	225	1	1.08889	0.968889;
	205	1	0	0	0	0	1	1.08572564	-8.25063012	380	1	1.10526	1;
	206	1	50.6	6.4	0	0	1	1.00607695	-25.2907553	63	1	1.06349	0.968254;
	207	1	32.8	5	0	0	1	1.00205744	-12.3423479	63	1	1.06349	0.968254;
	208	1	18	-0.4	0	0	1	1.0358176	-25.0365591	90	1	1.07778	0.977778;
	209	1	0.6	1.4	0	0	1	1.01689319	-18.8431187	63	1	1.06349	0.968254;
	210	1	41.1	6.8	0	0	1	0.999801998	-15.2149399	63	1	1.06349	0.968254;
	211	1	28.1	13.4	0	0	1	0.999841517	-15.063299	63	1	1.06349	0.968254;
	212	1	0	0	0	0	1	1.0445203	-15.0111388	225	1	1.08444	1.00889;
	213	1	0	0	0	0	1	1.04445368	-14.9942241	225	1	1.08444	1.00889;
	214	1	40.9	3.5	0	30.4	1	1.05273705	-33.7560934	90	1	1.07778	0.977778;
	215	1	0	0	0	0	1	1.06236921	-30.0066929	225	1	1.08889	1.00444;
	216	1	20.6	-4	0	0	1	0.999561404	-16.3461749	63	1	1.06349	0.952381;
	217	1	26.6	2.7	0	0	1	1.02599647	-29.8076188	90	1	1.06667	0.977778;
	218	1	-0.6	1.1	0	0	1	1.0390972	-17.7839828	90	1	1.06667	0.977778;
	219	1	12	-3.2	0	0	1	1.05949944	-28.3836068	90	1	1.06812	0.977778;
	220	1	12.7	1.4	0	0	1	1.02388524	0.0591197151	63	1	1.07937	0.952381;
	221	1	8.6	-3.8	0	0	1	1.03799665	-17.156099	63	1	1.06349	0.936508;
	222	1	0	0	0	0	1	1.09079104	-14.3988527	225	1	1.09432	0.933333;
	223	1	41.4	-0.1	0	0	1	1.03274852	-25.7804297	63	1	1.07937	0.920635;
	224	2	0	0	0	0	1	1.09536444	-18.047238	150	1	1.1	0.9;
	225	1	66.8	4.8	0	0	1	1.05186785	-14.6271219	225	1	1.08444	1.00889;
	226	1	66.8	43.8	0	0	1	1.05124489	-14.6207716	225	1	1.08444	1.00889;
	227	1	5	-1.8	0	0	1	1.02039366	-55.9526905	63	1	1.06349	0.952381;
	228	1	10.9	-2	0	0	1	1.01652431	-56.4848748	63	1	1.06349	0.952381;
	229	1	10.5	-3.1	0	0	1	1.04979697	-20.9920981	63	1	1.07937	0.920635;
	230	1	0	0	0	0	1	1.05149095	-14.7731374	225	1	1.08889	0.977778;
	231	1	7	-1.4	0	0	1	1.03900848	-28.9863125	90	1	1.06667	0.977778;
	232	1	5.1	0.9	0	0	1	1.03252617	-13.0577164	90	1	1.08889	0.933333;
	233	1	0	0	0	0	1	1.05357069	-14.5762672	20	1	1.15	0.8;
	234	1	23	7.1	0	0	1	1.05357069	-14.5762672	90	1	1.08889	0.933333;
	235	1	14.9	2.2	0	0	1	1.06822062	-11.2478593	225	1	1.08889	0.888889;
	236	1	23.8	1.3	0	0	1	1.04920616	-22.4147028	90	1	1.07778	0.922222;
	237	1	40.5	3.2	0	0	1	1.04609106	-10.3087415	63	1	1.06349	0.936508;
	238	1	25	-2.5	0	0	1	1.03896259	-27.9089315	90	1	1.06667	0.977778;
	239	1	52.1	2	0	0	1	1.02261266	-58.1329012	63	1	1.06349	0.952381;
	240	1	46.6	6.6	0	0	1	1.04023298	-26.235701	63	1	1.07937	0.920635;
	241	1	52.9	7.4	0	0	1	1.02196731	-24.1850857	90	1	1.07778	0.922222;
	242	1	56.3	9.3	0	0	1	0.993959179	-24.9405159	63	1	1.06349	0.968254;
	243	1	27.7	-3.4	0	0	1	1.02238082	-28.4201448	63	1	1.07937	0.920635;
	244	1	52.3	2.2	0	0	1	1.05011151	-18.0077081	90	1	1.07778	0.922222;
	245	1	13.7	-2.2	0	0	1	1.02273319	-27.1306732	63	1	1.07937	0.920635;
	246	2	10.5	3.9	0	0	1	1.01848169	-4.60978153	63	1	1.06349	0.936508;
	247	1	0	0	0	0	1	1.05021125	-3.17634238	225	1	1.08889	0.933333;
	248	1	32.4	13.6	0	0	1	1.06239799	-24.9368796	225	1	1.08889	1.00444;
	249	1	22.8	-2.7	0	0	1	1.02993546	-28.4098227	63	1	1.07937	0.920635;
	250	1	26.2	-8.1	0	0	1	1.02093749	-22.6532259	63	1	1.07937	0.952381;
	251	1	11.3	1.7	0	0	1	1.03450136	-33.2124542	90	1	1.06667	0.977778;
	252	1	10.1	-2.2	0	0	1	1.02925187	-23.9654434	90	1	1.06667	0.977778;
	253	1	50.7	3.9	0	0	1	1.03390963	-19.6609358	63	1	1.07937	0.952381;
	254	1	17.8	3.6	0	0	1	1.02999809	-19.8291847	63	1	1.07937	0.952381;
	255	1	10.5	2.1	0	0	1	1.02462968	-19.1799852	63	1	1.06349	0.936508;
	256	2	2.8	0	0	0	1	1.047	-21.7305897	63	1	1.07937	0.920635;
	257	1	0	0	0	0	1	1.08045459	-22.4186651	225	1	1.08889	1;
	258	1	0	0	0	0	1	1.07890409	-13.0843426	90	1	1.07924	0.922222;
	259	1	32.3	3.1	0	0	1	1.0527311	-17.7103906	63	1	1.07937	0.952381;
	260	1	0	0	0	0	1	1.06803852	-15.5011383	225	1	1.08889	0.986667;
	261	2	0	0	0	0	1	1.03811948	-27.8210347	63	1	1.07937	0.920635;
	262	1	0	0	0	80	1	1.06212942	-12.4825508	225	1	1.08889	0.888889;
	263	1	0	0	0	0	1	1.04928409	-14.2621183	225	1	1.08889	0.888889;
	264	1	0	0	0	0	1	1.06191282	-8.60842447	380	1	1.10526	1.01316;
	265	1	0	0	0	0	1	0.99997864	-28.06347	63	1	1.04762	0.952381;
	266	1	29.7	8.4	0	0	1	1.06418686	-24.6147265	225	1	1.08889	1.00444;
	267	1	65.5	9.9	0	0	1	1.04836227	-26.0087414	225	1	1.08889	1.00444;
	268	1	13.2	13.1	0	0	1	1.00315977	-18.3931162	63	1	1.07937	0.920635;
	269	1	24.5	1.6	0	0	1	1.00886277	-29.8832868	63	1	1.07937	0.920635;
	270	1	0	0	0	0	1	1.04257638	-10.2932615	225	1	1.08889	0.977778;
	271	1	0	0	0	0	1	1.04272879	-10.292836	225	1	1.08889	0.977778;
	272	1	44.2	6.9	0	0	1	1.02396434	-15.671714	63	1	1.06349	0.968254;
	273	1	29.5	5	0	0	1	1.03971999	-11.1248886	225	1	1.08444	1.00889;
	274	1	53.3	7.5	0	0	1	1.07123168	-20.5008838	90	1	1.1	0.944444;
	275	1	0	0	0	0	1	1.076705	-25.1538642	225	1	1.08444	1.00444;
	276	1	0	0	0	0	1	1.08622707	-19.4264655	380	1	1.10263	1.04211;
	277	1	1.8	3	0	0	1	1.04533565	-27.952199	90	1	1.06667	0.977778;
	278	1	-1.7	4.6	0	0	1	1.07646378	-25.2106228	225	1	1.08444	1.00444;
	279	1	12	-1.1	0	0	1	1.02088565	-21.2556662	63	1	1.06349	0.936508;
	280	1	48.8	7.7	0	0	1	1.04962483	-33.9348067	90	1	1.07778	0.977778;
	281	1	11.8	-0	0	0	1	1.01950856	-15.1887422	63	1	1.07937	0.952381;
	282	2	0	0	0	0	1	1.0184822	-4.60979308	63	1	1.06349	0.936508;
	283	1	10.8	-1	0	0	1	1.03568003	-34.9437821	90	1	1.06667	0.977778;
	284	1	16.1	3.1	0	0	1	1.01747566	1.31835397	63	1	1.07937	0.952381;
	285	1	0.3	5.7	0	0	1	1.06461141	-24.4954092	225	1	1.08889	1.00444;
	286	1	31.3	25.5	0	0	1	1.06440177	-24.5093976	225	1	1.08889	1.00444;
	287	1	27.8	-2	0	0	1	1.04136116	-24.6615129	90	1	1.06667	0.977778;
	288	1	34.7	-1.1	0	0	1	1.03964014	-30.4819909	90	1	1.06667	0.977778;
	289	1	27.3	-6.6	0	0	1	1.07732734	0.0107073585	225	1	1.08985	0.888889;
	290	1	3.4	3.9	0	0	1	1.07024241	-13.2017744	90	1	1.11111	0.955556;
	291	1	14.3	-1.9	0	0	1	1.02595259	-26.112785	63	1	1.07937	0.920635;
	292	1	0	0.5	0	0	1	1.03841627	-13.1929175	63	1	1.06349	0.936508;
	293	1	43	-1.7	0	0	1	1.03843447	-13.1934661	63	1	1.06349	0.936508;
	294	1	0	-0.9	0	0	1	1.0321483	-12.545178	63	1	1.07937	0.952381;
	295	1	21.3	4.3	0	0	1	1.05373914	-16.1028277	225	1	1.08889	0.888889;
	296	1	8	-0.6	0	0	1	1.01811589	-18.2918984	63	1	1.07937	0.952381;
	297	1	1	-1	0	0	1	1.01354536	-19.2229883	63	1	1.06349	0.936508;
	298	1	13	0	0	0	1	1.00638867	-9.42885812	63	1	1.06349	0.936508;
	299	1	0	0.1	0	0	1	1.06412456	-13.3308971	90	1	1.11111	0.955556;
	300	1	54.4	17.4	0	0	1	1.06802956	-10.6547543	225	1	1.08889	0.888889;
	301	1	3.3	0.1	0	0	1	0.998531796	-12.5363447	63	1	1.06349	0.968254;
	302	1	16.3	3.7	0	0	1	1.02828806	-11.8362379	63	1	1.06349	0.936508;
	303	1	41.9	10.9	0	0	1	0.991430993	-34.641573	63	1	1.07937	0.920635;
	304	1	35.5	-0.5	0	0	1	1.00622727	-23.7800557	63	1	1.06349	0.968254;
	305	2	0	0	0	0	1	1.053	-15.6936997	63	1	1.07088	0.936508;
	306	1	13.9	-1.5	0	0	1	1.01720069	-15.5669664	63	1	1.07937	0.952381;
	307	1	19.2	-2.8	0	0	1	1.01305664	-40.6762508	90	1	1.06667	0.977778;
	308	1	0.6	0.2	0	0	1	1.03991243	-25.9407787	63	1	1.07937	0.920635;
	309	1	7	2.5	0	0	1	1.03195793	-28.3715507	63	1	1.06349	0.968254;
	310	1	12	3.5	0	0	1	1.0322215	-28.3967433	63	1	1.06349	0.968254;
	311	1	1.5	-0	0	0	1	1.01006316	-30.8151573	90	1	1.06667	0.977778;
	312	1	-2.5	-0.8	0	0	1	1.0204348	-10.5864846	90	1	1.07778	0.922222;
	313	1	30.7	3.2	0	0	1	1.04216298	-22.2655534	63	1	1.07937	0.920635;
	314	1	0	0	0	0	1	1.06949759	-18.4364045	225	1	1.08889	1;
	315	1	20.8	-1.1	0	0	1	1.06310357	-26.2032346	90	1	1.07778	0.977778;
	316	1	28.6	7.2	0	0	1	1.02493993	-26.4857686	63	1	1.07937	0.920635;
	317	2	0	0	0	0	1	1.06197332	-20.1926706	63	1	1.07937	0.920635;
	318	1	13.3	4.1	0	0	1	1.02062425	-27.7459462	63	1	1.04762	0.952381;
	319	2	0	0	0	0	1	1.03606801	-27.328912	63	1	1.07937	0.920635;
	320	1	35	4.3	0	0	1	1.06004218	-18.2812545	90	1	1.1	0.944444;
	321	1	0	0	0	0	1	1.05204301	-24.6429376	63	1	1.07937	0.920635;
	322	1	0	0	0	0	1	1.03037233	-14.7554186	225	1	1.08889	1;
	323	1	0	0	0	0	1	1.06852882	-14.596325	380	1	1.10526	1.05263;
	324	1	26.4	4.7	0	0	1	1.03533001	-10.5818387	63	1	1.06349	0.936508;
	325	2	18.6	10.7	0	0	1	1.03488573	-13.5529782	63	1	1.06349	0.936508;
	326	1	10.8	17.1	0	0	1	1.05155892	-20.149183	63	1	1.07937	0.920635;
	327	1	0	0	0	0	1	1.05501425	-17.0492507	225	1	1.08889	1;
	328	1	34.6	4.3	0	0	1	1.03133387	-22.1683907	63	1	1.07937	0.920635;
	329	1	73.9	3.5	0	0	1	1.06456583	-19.129695	90	1	1.1	0.944444;
	330	1	81.7	-1.6	0	0	1	1.05024587	-24.7558113	63	1	1.07937	0.920635;
	331	1	0	0	0	0	1	1.07117751	-20.4588835	225	1	1.08889	1;
	332	2	8.4	-0.2	0	0	1	1.01832942	-31.9296339	63	1	1.06349	0.968254;
	333	2	0	0	0	0	1	1.04609402	-25.0551958	150	1	1.08	0.966667;
	334	1	6.9	-3.3	0	0	1	1.04831932	-53.1424315	63	1	1.06349	0.952381;
	335	1	8	0	0	0	1	1.03394591	-17.1928499	63	1	1.06349	0.936508;
	336	2	0.7	0	0	0	1	1.026	-21.8968669	63	1	1.07937	0.920635;
	337	1	14.6	-0.6	0	0	1	1.04273249	-27.7316291	63	1	1.07937	0.920635;
	338	2	0	0	0	0	1	1.06129846	-22.6749841	63	1	1.07937	0.920635;
	339	1	15.1	2.3	0	0	1	1.04162798	-24.663703	63	1	1.07937	0.920635;
	340	1	23.8	1	0	0	1	1.05506454	-27.6836785	90	1	1.06667	0.977778;
	341	1	7.3	-10.4	0	0	1	1.06144264	-25.2541659	63	1	1.07937	0.920635;
	342	1	12.1	-2.7	0	0	1	1.02493336	-13.4391183	63	1	1.07937	0.952381;
	343	1	0	0	0	0	1	1.03158297	-10.4652675	225	1	1.08889	0.986667;
	344	1	11.9	-3.5	0	0	1	1.00889846	-15.4805679	63	1	1.06349	0.968254;
	345	1	27.4	-5.7	0	0	1	1.03191491	-25.6259655	90	1	1.07778	0.977778;
	346	1	13.1	0.2	0	0	1	1.06147555	-6.75587132	225	1	1.08444	1.00889;
	347	1	-1.4	-0.3	0	0	1	1.03757335	-28.4451546	63	1	1.06349	0.968254;
	348	1	54	7.1	0	0	1	1.06008613	-22.1490343	90	1	1.1	0.944444;
	349	1	0	0	0	0	1	1.0948175	-11.6062663	380	1	1.10695	1.04211;
	350	1	0	0	0	0	1	1.09480473	-11.6183382	380	1	1.10699	1.04211;
	351	1	26.7	5.9	0	0	1	1.07262087	-17.1217393	225	1	1.08889	1;
	352	1	11.5	11.6	0	0	1	1.06365804	-26.1479007	225	1	1.08889	1.00444;
	353	1	31.7	-8.3	0	0	1	1.02792956	-29.1563426	63	1	1.04762	0.952381;
	354	1	1.6	1.3	0	0	1	1.02853234	-19.9825903	63	1	1.07937	0.920635;
	355	1	3	-1.9	0	0	1	1.04928371	-9.94813992	63	1	1.07937	0.920635;
	356	1	6	2	0	0	1	1.02203198	-22.4558583	63	1	1.07937	0.920635;
	357	1	15.5	0.3	0	0	1	1.01599212	-13.4486682	63	1	1.07937	0.952381;
	358	1	23.7	7.8	0	0	1	1.02246546	-22.4271131	63	1	1.07937	0.920635;
	359	1	33.7	1.3	0	0	1	1.01620561	-23.5949505	63	1	1.06349	0.968254;
	360	1	54.2	1.5	0	19	1	1.04614662	-25.4188692	63	1	1.07937	0.920635;
	361	1	0	0	0	0	1	1.0756397	-21.718682	150	1	1.1	0.9;
	362	1	0	0	0	0	1	1.07726102	-20.2936412	225	1	1.08889	1;
	363	1	9.5	5.1	0	0	1	1.0709824	-17.8938714	90	1	1.08889	0.933333;
	364	2	-3	0	0	0	1	1.049	-25.8555578	225	1	1.08889	1.00444;
	365	1	-0	-0.1	0	0	1	1.03394483	-9.12843972	63	1	1.06349	0.936508;
	366	1	0	0	0	0	1	1.04826961	-5.44338989	225	1	1.08889	0.933333;
	367	1	0	0	0	0	1	1.07291863	-3.79511484	380	1	1.10526	1.03947;
	368	1	0	0	0	0	1	1.07035696	-4.86931261	380	1	1.10526	1.03947;
	369	1	0	0	0	0	1	1.07397338	-28.4717705	225	1	1.09026	1.00444;
	370	1	62	14.3	0	0	1	1.03025805	-26.754857	225	1	1.08889	1.00444;
	371	1	11.8	2.7	0	0	1	1.01062585	0.0554855377	63	1	1.07937	0.952381;
	372	1	0	0	0	0	1	1.04584144	-1.9313801	225	1	1.08889	0.986667;
	373	1	25	8.3	0	0	1	1.07378857	-28.4863491	225	1	1.09008	1.00444;
	374	1	23.9	1.1	0	0	1	1.00060029	-55.3718471	63	1	1.06349	0.952381;
	375	1	15	-1.4	0	0	1	1.02573029	-35.7052685	90	1	1.06667	0.977778;
	376	1	53.8	1.5	0	0	1	1.02467295	-42.0681067	63	1	1.06349	0.952381;
	377	1	4.2	-1.9	0	0	1	1.02293356	-10.6678692	63	1	1.07937	0.952381;
	378	1	29.7	2.1	0	0	1	1.04719184	-15.7839604	63	1	1.06349	0.936508;
	379	1	0	0	0	0	1	1.05352089	-11.3648406	225	1	1.08889	0.933333;
	380	1	0	0	0	0	1	1.07540952	-8.56718904	380	1	1.10526	1.03947;
	381	1	49.3	5	0	0	1	1.03335401	-32.3232002	90	1	1.07778	0.977778;
	382	1	16.4	-0.9	0	0	1	1.02709425	-5.2949162	63	1	1.07937	0.952381;
	383	1	44.9	16.5	0	0	1	1.03919476	-15.0460672	63	1	1.07937	0.920635;
	384	1	18.2	2.1	0	0	1	1.00822107	-28.4492476	63	1	1.07937	0.920635;
	385	1	15.8	9.8	0	0	1	1.0213422	-4.29976476	63	1	1.07937	0.920635;
	386	1	42.8	9.1	0	0	1	1.0773033	-16.8217005	225	1	1.08889	1;
	387	1	5.7	-2	0	0	1	1.06363278	-15.7959322	90	1	1.07778	0.922222;
	388	1	44.7	1.2	0	0	1	1.05434503	-20.5017313	90	1	1.1	0.944444;
	389	1	26.8	0.5	0	0	1	1.04406093	-14.978447	63	1	1.06349	0.936508;
	390	1	2.8	0.5	0	0	1	1.02334292	-15.7122478	63	1	1.06349	0.968254;
	391	1	21.2	-4.4	0	0	1	1.04099206	-22.3372303	63	1	1.07937	0.920635;
	392	1	29.2	0.1	0	0	1	1.00204466	-25.9401331	63	1	1.06349	0.968254;
	393	1	5	0.1	0	0	1	1.03584528	-15.3474469	63	1	1.07937	0.952381;
	394	1	6	2	0	0	1	1.03503585	-22.1250571	63	1	1.07937	0.920635;
	395	1	41	3.9	0	0	1	1.03513812	-22.1188581	63	1	1.07937	0.920635;
	396	1	0	0	0	0	1	1.04463638	-4.58227594	63	1	1.07937	0.952381;
	397	1	13	-2.4	0	0	1	1.04110027	-27.2469448	63	1	1.07937	0.920635;
	398	1	6	0.6	0	0	1	1.03645212	-34.8524588	90	1	1.06667	0.977778;
	399	1	3.5	3.8	0	0	1	1.06344536	-20.0577164	63	1	1.07937	0.920635;
	400	1	20.1	2	0	0	1	1.03913277	-23.5020528	63	1	1.07937	0.920635;
	401	1	5	0.1	0	0	1	1.04387234	-16.2770689	63	1	1.06349	0.936508;
	402	1	21.7	-0.2	0	0	1	1.02739426	-26.3428415	90	1	1.07778	0.922222;
	403	1	20	2.7	0	0	1	1.04435315	-11.1484718	63	1	1.06349	0.936508;
	404	1	31.5	9.5	0	0	1	1.04356613	-13.4025186	63	1	1.06372	0.936508;
	405	1	6.9	3.7	0	0	1	1.02575343	-15.8798964	63	1	1.06349	0.936508;
	406	1	59.9	1.9	0	0	1	1.02643371	-25.9199681	90	1	1.06667	0.977778;
	407	1	0.6	0.2	0	0	1	1.04563867	-30.2690167	90	1	1.06667	0.977778;
	408	1	13.8	-4.1	0	0	1	1.05816087	-29.9260959	63	1	1.07937	0.920635;
	409	2	0	0	0	0	1	1.02799447	-24.9479947	63	1	1.06349	0.968254;
	410	1	20	1.9	0	0	1	1.03861899	-38.0703107	90	1	1.06667	0.977778;
	411	1	15.9	-0.7	0	0	1	1.03510796	-30.1308192	90	1	1.06667	0.977778;
	412	1	22.8	-5.3	0	0	1	1.01697653	-7.42293568	63	1	1.07937	0.952381;
	413	1	28.1	0.9	0	0	1	1.03694767	-53.4569131	63	1	1.06349	0.952381;
	414	1	-0.3	0.6	0	0	1	1.01265965	-16.9592411	63	1	1.06349	0.936508;
	415	1	9.6	-1.7	0	0	1	1.02904688	-20.5295141	63	1	1.07937	0.952381;
	416	1	20.4	-31.1	0	0	1	1.06929492	-27.3240909	225	1	1.08923	1.00444;
	417	1	18.3	5.2	0	0	1	1.04086442	-30.2352874	63	1	1.07937	0.920635;
	418	1	9	3.1	0	0	1	1.01293833	-27.5378729	63	1	1.04762	0.952381;
	419	1	27.2	5.3	0	0	1	1.05277537	-29.1123055	63	1	1.07937	0.920635;
	420	1	-4.3	-0.7	0	0	1	1.05582738	-28.7004234	63	1	1.07937	0.920635;
	421	1	0	0	0	0	1	1.01337861	-33.8283228	63	1	1.06349	0.968254;
	422	1	0	0	0	0	1	1.05071317	-20.6071502	63	1	1.07937	0.920635;
	423	1	0	0	0	0	1	1.0781349	-17.7180992	225	1	1.08911	1;
	424	1	0	0	0	0	1	1.03766638	-2.21199865	63	1	1.07937	0.952381;
	425	1	0	0	0	0	1	1.06665556	1.19510176	225	1	1.08889	0.986667;
	426	1	0	0	0	0	1	1.02017851	-28.2568552	63	1	1.04762	0.952381;
	427	1	-0.1	0.3	0	0	1	1.02768013	-9.597943	63	1	1.06349	0.936508;
	428	1	7	-2	0	0	1	1.02981682	-45.7653687	63	1	1.06349	0.952381;
	429	1	56.7	7.2	0	0	1	1.02531394	-18.5542364	63	1	1.06349	0.968254;
	430	1	114	32.2	0	0	1	1.07358242	-25.8020379	225	1	1.09152	1.00444;
	431	1	13	0.2	0	0	1	1.05994112	-21.9747703	63	1	1.07937	0.920635;
	432	1	25	-2.5	0	0	1	1.03797543	-36.5735761	63	1	1.07937	0.920635;
	433	1	3.2	3.9	0	0	1	1.04961735	-28.2462366	63	1	1.06645	0.952381;
	434	1	14	-3.6	0	0	1	1.02155965	-13.3640706	63	1	1.06349	0.936508;
	435	1	34.1	4.4	0	0	1	1.04347934	-26.8271363	90	1	1.07778	0.922222;
	436	1	26.1	-5.6	0	0	1	1.01120164	-15.3995021	63	1	1.06349	0.968254;
	437	1	2	-2	0	0	1	1.05558389	-14.8387656	63	1	1.09524	0.904762;
	438	1	11.9	-2	0	0	1	1.01666252	-28.4576655	63	1	1.04762	0.952381;
	439	1	12.8	1.6	0	0	1	1.03932719	-11.2650403	63	1	1.07937	0.952381;
	440	2	0	0	0	0	1	1.0316766	-27.7388366	63	1	1.07937	0.920635;
	441	1	3.2	2.2	0	0	1	1.02999218	-12.9383003	63	1	1.06349	0.936508;
	442	1	26.5	3.1	0	0	1	1.02607121	2.3803889	63	1	1.07937	0.952381;
	443	1	14.4	3.9	0	0	1	1.07225148	-20.002143	90	1	1.11111	0.955556;
	444	1	0	0	0	0	1	1.07626228	-20.7854197	90	1	1.11111	0.955556;
	445	1	29.7	6.4	0	0	1	1.08325399	-21.2654643	90	1	1.11111	0.955556;
	446	1	0	0	0	0	1	1.03536326	-16.1129166	225	1	1.08889	0.924444;
	447	2	-0	2.9	0	0	1	0.999	-9.55638537	63	1	1.06349	0.968254;
	448	1	0	0	0	0	1	1.0211733	1.56578848	63	1	1.07937	0.952381;
	449	1	0	0	0	0	1	1.08622628	4.91856573	225	1	1.09494	0.986667;
	450	1	0	0	0	0	1	1.08984652	6.07120366	380	1	1.10526	1.03947;
	451	1	0.7	0	0	0	1	1.01127208	-23.7135509	63	1	1.07937	0.920635;
	452	1	0	0	0	30	1	1.0525605	-48.6569202	63	1	1.06349	0.952381;
	453	1	0	0	0	0	1	1.06596517	-43.7894898	225	1	1.08444	1.00444;
	454	1	25	2.9	0	0	1	1.0406023	-26.3317872	63	1	1.07937	0.920635;