function mpc = case9241pegase_res
%CASE9241PEGASE_RES

%% MATPOWER Case Format : Version 2
mpc.version = '2';

%%-----  Power Flow Data  -----%%
%% system MVA base
mpc.baseMVA = 100;

%% bus data
%    bus_i    type    Pd    Qd    Gs    Bs    area    Vm    Va    baseKV    zone    Vmax    Vmin
mpc.bus = [
    1    1    378.4    98.5    0    16.61    0    1.00759728    -36.5716869    220    6    1.1    0.9;
    2    2    0    0    0    0    0    1.031734    -8.43484047    154    1    1.1    0.9;
    3    1    151    48.8    0    4.69    0    1.01784198    -21.085326    220    5    1.1    0.9;
    4    1    171.41    23.4    0    2.1    0    1.02050104    -6.89240881    220    5    1.1    0.9;
    5    1    45.95    14    0    13.34    0    0.989942258    -48.5130021    220    6    1.1    0.9;
    6    2    0    0    0    0    0    1.038476    -41.380133    380    6    1.1    0.9;
    7    1    31.03    10.3    0    0.65    0    0.969174305    -33.3197766    110    21    1.1    0.9;
    8    2    0    0    0    0    0    1.023005    -17.1856232    154    1    1.1    0.9;
    9    1    14.3    2    0    1.91    0    1.03265809    -0.0581261816    154    1    1.1    0.9;
    10    1    134    24.7    0    12.44    0    1.03335216    -23.7384608    220    5    1.1    0.9;
    11    1    0    0    0    0    0    0.965105427    -28.1850451    150    9    1.1    0.9;
    12    1    -6.11    2    0    0.47    0    1.03450826    -23.1282932    150    9    1.1    0.9;
    13    1    -22.74    -8.32    0    6.5    0    1.01386587    -47.3076023    220    6    1.1    0.9;
    14    1    13.5    14.8    0    132.435168    0    1.14146942    -18.2913472    380    9    1.3    0.7;
    15    1    59.67    26.7    0    12.84    0    1.02164982    -48.5492231    220    4    1.1    0.9;
    16    1    30.6    4.3    0    5.15    0    1.03243068    9.65644085    154    1    1.1    0.9;
    17    1    67.68    12.1    0    2.18    0    1.01056359    7.67536504    220    3    1.1    0.9;
    18    2    0    0    0    0    0    1.026728    19.0699005    380    3    1.1    0.9;
    19    1    25.33    7.5    0    2.39    0    1.00510973    -35.5774402    110    12    1.1    0.9;
    20    1    1.4    0.2    0    4.93    0    1.02451664    10.2689371    154    1    1.1    0.9;
    21    1    161.2    39.3    0    30.71    0    1.03134093    -21.3458538    220    5    1.1    0.9;
    22    1    0    -0    0    0.85    0    1.03171319    -17.981898    220    5    1.1    0.9;
    23    1    19.62    7.1    0    1.15    0    1.02536072    -23.4499642    110    19    1.1    0.9;
    24    1    17.22    5.7    0    1.22    0    0.961065445    -29.6427008    110    21    1.1    0.9;
    25    2    0    0    0    0    0    1.028526    13.9195073    220    3    1.1    0.9;
    26    1    167.3    54.8    0    110.54    0    1.02961248    -3.18578801    380    5    1.1    0.9;
    27    1    -0    -0    0    14.82    0    1.08549628    15.0493581    380    13    1.1    0.9;
    28    1    0    0    0    0    0    1.0049378    -28.6214959    150    9    1.1    0.9;
    29    1    152.9    49.4    0    27.65    0    1.00479949    -13.7404363    380    5    1.1    0.9;
    30    1    -0    0    0    0.56    0    1.02353107    -26.4639751    150    9    1.1    0.9;
    31    1    69.68    43.2    0    6.3    0    0.905480542    -32.2231918    150    9    1.3    0.7;
    32    2    0    0    0    0    0    1.003223    -42.6765789    220    4    1.1    0.9;
    33    2    0    0    0    0    0    1.026534    -38.2998129    220    4    1.1    0.9;
    34    1    13.52    4.9    0    1.8    0    1.02846956    -22.0610241    110    19    1.1    0.9;
    35    1    10.51    3.5    0    0.31    0    1.02647308    -33.872284    110    12    1.1    0.9;
    36    1    -0    -0    0.12    15.34    0    1.04548826    -18.8057933    220    19    1.1    0.9;
    37    1    9.21    2.6    0    2    0    0.972197293    -27.2377598    110    18    1.1    0.9;
    38    1    42.75    12.8    0    13.3    0    1.02283606    27.5124217    220    8    1.1    0.9;
    39    2    0    0    0    0    0    1.003511    -37.9728824    150    10    1.1    0.9;
    40    1    16.02    4.54    0    0.1    0    0.999072494    -28.827714    110    23    1.1    0.9;
    41    1    27.9    4    0    4.23    0    1.00862562    -5.23575256    154    1    1.1    0.9;
    42    1    20.82    7.9    0    26.89    0    1.04239241    -48.8366779    380    4    1.1    0.9;
    43    1    12.6    1.8    0    2.03    0    1.02873905    -12.3138961    154    1    1.1    0.9;
    44    1    -0    0    0    7.27    0    1.04074115    -21.6151665    220    5    1.1    0.9;
    45    1    10.11    3.7    0    0.81    0    1.04806301    -22.6858758    110    19    1.1    0.9;
    46    1    10.01    2.7    0    1.14    0    0.958464824    -27.0537518    110    18    1.1    0.9;
    47    1    6.31    0    0    0.67    0    0.985856382    -25.5542734    110    18    1.1    0.9;
    48    1    2.9    0.9    0    0.6    0    1.04548774    -23.6835041    110    15    1.1    0.9;
    49    2    0    0    0    0    0    1.020323    -35.2712265    220    6    1.1    0.9;
    50    1    48.8    6.9    0    8.71    0    1.02500815    -0.86766083    154    1    1.1    0.9;
    51    2    0    0    0    0    0    1.006665    -47.8516846    220    4    1.1    0.9;
    52    1    127.6    31.8    0    20.51    0    1.01771905    0.956910291    150    8    1.1    0.9;
    53    1    48.65    16.1    0    7.14    0    1.05343233    -9.05979755    220    5    1.1    0.9;
    54    1    110.5    -26.8    0    16.37    0    1.02377862    -34.6658507    220    6    1.1    0.9;
    55    1    0    -0    0    1.23    0    0.99693454    10.6598573    220    3    1.1    0.9;
    56    1    140    79.7    0    6.5    0    1.01062209    -15.9208603    220    3    1.1    0.9;
    57    1    21.6    3    0    3.54    0    1.00653281    -6.10055643    154    1    1.1    0.9;
    58    1    0    0    0    2.31    0    1.02749116    -18.4264049    380    5    1.1    0.9;
    59    1    119.2    20.7    0    3.31    0    1.02675193    -23.7268642    220    5    1.1    0.9;
    60    1    0.24    -1.66    0    0.65    0    1.02435765    -17.6312769    110    18    1.1    0.9;
    61    1    -0    0    0    58.57    0    1.09274668    47.049828    380    3    1.1    0.9;
    62    1    -0    0    0    1.34    0    0.970170984    -25.438382    110    18    1.1    0.9;
    63    1    187.9    110.2    0    21.25    0    1.0190395    6.46200311    380    3    1.1    0.9;
    64    1    14.92    5.5    0    1.31    0    1.05820024    -21.0901264    110    15    1.1    0.9;
    65    1    -18.52    6.1    0    0.79    0    0.92019017    -30.7260091    150    9    1.1    0.9;
    66    1    4.61    1.7    0    2.32    0    1.07592329    -16.7114346    110    19    1.1    0.9;
    67    1    0    0    0.099501    82.133595    0    1.07686537    -20.36848    380    18    1.1    0.9;
    68    1    10.81    5.1    0    1.09    0    0.932261998    -30.203518    110    18    1.1    0.9;
    69    1    62.87    20.5    0    1.15    0    1.01688508    -0.256364761    150    8    1.1    0.9;
    70    1    0    0    0    2.64    0    1.02184183    -3.68508527    154    1    1.1    0.9;
    71    1    126.3    42.4    0    55.24    0    1.04566592    4.05721857    150    8    1.1    0.9;
    72    1    6.91    -4.6    0    5.75    0    1.00741428    -40.8167639    220    4    1.1    0.9;
    73    1    15.72    5.2    0    0.11    0    1.01129971    -36.0238873    110    12    1.1    0.9;
    74    1    0    0    0    0    0    1.04847347    -26.0903732    150    9    1.1    0.9;
    75    1    38.74    6.1    0    1.17    0    1.01904095    -52.9143372    220    4    1.1    0.9;
    76    1    22.13    10.7    0    14.21    0    1.02288083    27.5222751    220    8    1.1    0.9;
    77    1    -0    -0    0    0.73    0    1.00827026    -50.1591396    220    4    1.1    0.9;
    78    1    0    -0    0    0.83    0    0.981822892    -18.5690367    110    18    1.1    0.9;
    79    1    138.8    136.7    0    8.76    0    1.01437009    14.7964426    380    3    1.1    0.9;
    80    2    0    0    0    0    0    1.068393    -23.9456958    220    23    1.1    0.9;
    81    1    67.76    19.18    0    1.47    0    1.01092554    62.1034555    150    1    1.1    0.9;
    82    1    22.02    5.1    0    0.69    0    1.03233084    -31.3925881    110    1    1.1    0.9;
    83    1    0    0    0    6.62    0    0.980399611    14.5634385    220    3    1.1    0.9;
    84    1    1    0.3    0    0.19    0    1.01810386    -23.6832937    110    19    1.1    0.9;
    85    1    20.9    3    0    5.74    0    1.02207122    20.0067913    154    1    1.1    0.9;
    86    1    0    0    0    0.12    0    1.05108422    -21.3964228    150    9    1.1    0.9;
    87    1    21.52    5.1    0    0.5    0    1.0178895    -12.7159915    110    18    1.1    0.9;
    88    1    71.98    28.8    0    11    0    1.00674716    -36.1969114    220    6    1.1    0.9;
    89    1    0    0    0.199111    4.530599    0    0.99105946    -2.195772    380    2    1.1    0.9;
    90    1    363.25    115.39    0    3.95    0    1.04205795    -27.3398999    220    5    1.1    0.9;
    91    1    -0    0    0    0.02    0    1.02704383    1.91401951    150    8    1.1    0.9;
    92    1    192.9    73.3    0    20.75    0    1.02112208    4.75405718    380    3    1.1    0.9;
    93    1    17.52    6.3    0    0.26    0    1.05866003    -18.7302271    110    19    1.1    0.9;
    94    1    33.14    12    0    0.65    0    1.00796493    -21.5734642    110    19    1.1    0.9;
    95    1    40.45    25    0    9.82    0    0.98000828    -27.0691736    150    9    1.1    0.9;
    96    1    193.17    53.37    0    4.58    0    1.03674836    -14.9550097    220    5    1.1    0.9;
    97    1    0    0    0    9.38    0    1.05333142    3.44527425    380    1    1.1    0.9;
    98    1    90.7    25.5    0    3.11    0    1.04773854    -1.75795541    220    3    1.1    0.9;
    99    1    176.3    -58.9    0    24.77    0    1.02505089    -32.392776    380    6    1.1    0.9;
    100    1    35.94    22.3    0    0    0    1.03386259    -26.7676744    150    9    1.1    0.9;
    101    1    -0    0    0    0.29    0    0.964840661    -28.1965612    150    9    1.1    0.9;
    102    1    0    -0    0    3.77    0    1.00400815    -49.7224639    220    6    1.1    0.9;
    103    1    65.07    40.3    0    5.43    0    0.992021813    -31.0096578    150    9    1.1    0.9;
    104    1    51.36    -8.8    0    2.15    0    0.965338326    -54.5938803    220    6    1.1    0.9;
    105    1    -0    -0    0    82.55    0    1.03670236    -33.6901867    380    6    1.1    0.9;
    106    1    0    -0    0    31.19    0    1.16240118    -19.3894811    380    23    1.3    0.7;
    107    2    0    0    0    0    0    1.083135    42.7453459    380    3    1.3    0.7;
    108    1    3.8    1.3    0    0.4    0    1.00519175    -15.6211808    110    18    1.1    0.9;
    109    1    137    19.5    0    4.9    0    1.00485771    -8.30968851    154    1    1.1    0.9;
    110    1    0    0    0    0    0    0.994256365    -28.851949    150    9    1.1    0.9;
    111    1    61.07    36    0    3.09    0    1.04847141    -23.0705474    220    11    1.1    0.9;
    112    1    0    0    0    3.24    0    1.02832841    -8.86079415    220    3    1.1    0.9;
    113    1    -0    -0    0    6.532711    0    1.02741017    -13.7797312    380    5    1.1    0.9;
    114    1    55.7    7.9    0    4.21    0    1.0265084    13.3749751    154    1    1.1    0.9;
    115    1    0    -0    0    4.21    0    1.06162096    -19.1619752    220    5    1.1    0.9;
    116    1    1.8    0.7    0    0.3    0    1.03875731    -20.1275317    110    19    1.1    0.9;
    117    1    40.04    16    0    0.52    0    1.00245603    -22.0462627    110    18    1.1    0.9;
    118    1    -0    0    0    36.562834    0    1.02392203    -11.0817323    380    5    1.1    0.9;
    119    1    0    0    0    0.09    0    1.06662324    -18.0346329    150    9    1.1    0.9;
    120    1    140.6    20.1    0    13.81    0    1.01768816    -20.9184435    154    1    1.1    0.9;
    121    1    45.15    14.1    0    0.19    0    1.06168355    -22.8246059    110    15    1.1    0.9;
    122    1    -0    0    0    5.75    0    1.00265873    9.56541584    220    3    1.1    0.9;
    123    2    0    0    0    0    0    1.041503    -20.0787055    220    11    1.1    0.9;
    124    2    0    0    0    0    0    1.077112    8.57109101    220    5    1.1    0.9;
    125    1    3.42    2.68    0    1.46    0    1.02228181    -17.66724    110    18    1.1    0.9;
    126    1    0    -0    0    2.64    0    1.00983923    7.23219124    154    1    1.1    0.9;
    127    1    -0    -0    0    4.3    0    1.0217565    -27.6339016    220    6    1.1    0.9;
    128    1    23.73    12.7    0    0.52    0    1.01520017    -15.3810928    220    5    1.1    0.9;
    129    1    121.9    7.4    0    1.34    0    1.01926883    -11.3687514    220    3    1.1    0.9;
    130    1    -0    0    0.135375    47.750675    0    1.0579505    -47.0267833    380    10    1.1    0.9;
    131    1    47.35    16.4    0    4.08    0    1.03251909    -37.1745707    110    22    1.1    0.9;
    132    1    0    -0    0    21.39    0    1.06240746    -43.6569422    380    1    1.1    0.9;
    133    1    38.14    12.5    0    6.28    0    1.02144514    2.54325908    150    8    1.1    0.9;
    134    1    54.2    7.8    0    94.9    0    1.01293164    9.77962306    400    1    1.1    0.9;
    135    1    130.6    84.9    0    4.22    0    1.02197469    -21.0797135    220    7    1.1    0.9;
    136    1    7.91    2.6    0    0.74    0    1.00648546    -33.5345064    110    12    1.1    0.9;
    137    1    42.1    74.61    0    37.58    0    1.00306402    62.3843548    150    1    1.1    0.9;
    138    1    -75.38    7.8    0    29.9    0    1.06747202    -41.6744796    380    10    1.1    0.9;
    139    1    -0    -0    0    36.92    0    1.01303453    18.139441    380    8    1.1    0.9;
    140    1    0    0    0    4.14    0    1.02628425    18.7021802    220    8    1.1    0.9;
    141    2    0    0    0    0    0    1.050716    -0.390090246    220    13    1.1    0.9;
    142    2    0    0    0    0    0    1.042299    -30.116607    220    6    1.1    0.9;
    143    1    0    0    0    0    0    1.02234543    5.27833998    150    8    1.1    0.9;
    144    1    0    0    0    98.53    0    1.06386276    20.1372473    380    14    1.1    0.9;
    145    1    38.34    5.6    0    7.64    0    1.03823622    -8.85209342    220    5    1.1    0.9;
    146    1    269.6    65.7    0    0    0    1.08564056    -23.3949151    120    20    1.3    0.7;
    147    2    0    0    0    0    0    1.058041    -12.4223676    220    7    1.1    0.9;
    148    1    32.34    12    0    6.1    0    1.03462479    -7.91283905    220    5    1.1    0.9;
    149    1    100.1    45.1    0    1.11    0    1.02168389    -40.1274748    380    6    1.1    0.9;
    150    2    0    0    0    0    0    1.062129    2.64445269    220    5    1.1    0.9;
    151    2    0    0    0    0    0    1.013748    -20.4900713    154    1    1.1    0.9;
    152    1    7    1    0    4.69    0    1.05033193    -2.22927869    154    1    1.1    0.9;
    153    1    -0    0    0    0.56    0    1.01377786    -29.2664874    150    7    1.1    0.9;
    154    1    0    0    0    1.29    0    1.01673493    -37.0620609    110    12    1.1    0.9;
    155    1    -0    -0    0    1.7    0    1.01983248    -26.7083271    110    21    1.1    0.9;
    156    1    40.34    25    0    1.14    0    0.953090655    -28.6333604    150    9    1.1    0.9;
    157    1    9.21    3.3    0    1.2    0    1.0146571    -10.8316623    110    19    1.1    0.9;
    158    1    166    60.3    0    0.57    0    1.01503742    8.00379145    220    3    1.1    0.9;
    159    1    0    -0    0    0.1    0    1.0213361    -26.5114453    150    9    1.1    0.9;
    160    1    79.4    11.3    0    4.92    0    1.03101391    4.40294473    154    1    1.1    0.9;
    161    1    -0    -0    0    0.16    0    1.09100264    -24.726718    150    9    1.1    0.9;
    162    1    0    0    0    66.65    0    1.05231134    -14.811844    380    6    1.1    0.9;
    163    1    147.76    32.73    0    8.34    0    1.04545496    -10.119085    220    5    1.1    0.9;
    164    1    0    -0    0    5.17    0    1.02083965    0.0930300135    150    8    1.1    0.9;
    165    1    26.8    -3.7    0    51.261678    0    1.07315875    -20.8846142    380    9    1.1    0.9;
    166    2    0    0    0    0    0    1.040747    13.4804642    220    3    1.1    0.9;
    167    1    257.5    131.1    0    1.08    0    1.03977702    -3.42759977    220    3    1.1    0.9;
    168    1    16.7    2.4    0    6.09    0    1.03317659    15.6380895    154    1    1.1    0.9;
    169    1    0    0    0    1.91    0    1.04553073    -26.256838    150    9    1.1    0.9;
    170    1    -0    -0    0    2.35    0    1.01145081    36.6506439    220    1    1.1    0.9;
    171    1    100.8    13.2    0    5.24    0    1.06196941    -24.8472843    220    5    1.1    0.9;
    172    1    111.7    10.96    0    4.22    0    1.01011346    -46.9480271    220    4    1.1    0.9;
    173    1    90.38    -5.05    0    8.49    0    1.05470054    16.1913503    220    13    1.1    0.9;
    174    1    370.5    -17    0    9.91    0    1.07089486    -27.4626525    220    5    1.1    0.9;
    175    1    9.91    3.2    0    0.67    0    1.00379173    -38.2942682    110    12    1.1    0.9;
    176    1    -0.69    -5.46    0    5.07    0    1.04084508    -25.3607673    150    9    1.1    0.9;
    177    1    94.9    36.2    0    16.46    0    0.969765204    -43.0363448    220    10    1.1    0.9;
    178    1    81.09    48    0    0.03    0    1.01321215    -27.1679543    150    9    1.1    0.9;
    179    2    0    0    0    0    0    1.043661    -49.6453262    380    4    1.1    0.9;
    180    1    0    0    0    0.54    0    1.02953181    -25.4413724    110    21    1.1    0.9;
    181    1    54.96    16.9    0    3.37    0    1.040587    -36.3836967    110    22    1.1    0.9;
    182    1    19.32    26    0    0.69    0    1.03556112    40.2047713    220    3    1.1    0.9;
    183    1    0    0    0    1.83    0    1.03146511    -25.9863434    150    9    1.1    0.9;
    184    1    -0    -0    0    2.42    0    1.03753632    -11.1927746    220    5    1.1    0.9;
    185    1    20.9    3    0    4.11    0    1.007995    -3.63899714    154    1    1.1    0.9;
    186    1    19.92    6.6    0    0.56    0    1.00964544    -27.7468983    110    21    1.1    0.9;
    187    1    57.16    2    0    1.48    0    1.00247263    -35.6435085    110    22    1.1    0.9;
    188    1    36.84    13.9    0    3.3    0    1.01521804    -19.1199459    220    5    1.1    0.9;
    189    1    -15.04    -5.12    0    0.43    0    1.00122972    -25.4810806    110    18    1.1    0.9;
    190    2    0    0    0    0    0    1.025544    -18.8741628    110    19    1.1    0.9;
    191    1    0    -0    0    14.19    0    1.01622194    -35.6925379    220    6    1.1    0.9;
    192    2    0    0    0    0    0    1.048355    66.7071156    380    3    1.1    0.9;
    193    1    119.9    3.7    0    3.33    0    1.03133223    25.5265123    220    3    1.1    0.9;
    194    2    0    0    0    0    0    1.02931    13.7184547    150    8    1.1    0.9;
    195    1    73.14    21.55    0    8.52    0    1.04891158    -8.4949417    220    5    1.1    0.9;
    196    1    0    -0    0    12.48    0    1.06884835    -25.7587175    220    5    1.1    0.9;
    197    2    0    0    0    0    0    1.099985    46.0453451    380    3    1.1    0.9;
    198    1    39.74    11.8    0    1.44    0    1.01128647    -15.6481561    220    5    1.1    0.9;
    199    1    86.8    28.4    0    1.34    0    1.01768519    1.17683501    150    8    1.1    0.9;
    200    1    22.42    2.1    0    0.19    0    1.01097722    62.2625964    150    1    1.1    0.9;
    201    2    0    0    0    0    0    1.01914    -51.1228094    220    4    1.1    0.9;
    202    1    110.9    32.7    0    15.4    0    1.0287742    0.48029188    220    14    1.1    0.9;
    203    1    18.2    2.6    0    12.38    0    1.03485466    16.8139678    154    1    1.1    0.9;
    204    1    -0    -0    0.181549    14.690889    0    1.05468902    -21.2680931    220    18    1.1    0.9;
    205    1    46.15    18.2    0    1.29    0    1.01788208    5.86207348    150    8    1.1    0.9;
    206    1    34.04    12.3    0    0.23    0    1.06256021    -18.7658015    110    19    1.1    0.9;
    207    1    321.98    84.4    0    1.34    0    1.02138148    -12.763443    220    5    1.1    0.9;
    208    1    33.44    10    0    1.36    0    1.04627248    -28.3392072    110    3    1.1    0.9;
    209    2    0    0    0    0    0    1.026832    -33.5560791    110    12    1.1    0.9;
    210    1    0    0    0    0    0    0.959798805    -34.1530879    150    9    1.1    0.9;
    211    1    75.28    19.2    0    1.9    0    1.0298038    14.4509325    110    8    1.1    0.9;
    212    1    95.69    24.54    0    2.85    0    1.02684849    -3.56578745    220    13    1.1    0.9;
    213    1    37.34    10.9    0    0.63    0    1.00849341    -32.2798957    110    1    1.1    0.9;
    214    2    0    0    0    0    0    1.079765    14.8968108    380    13    1.1    0.9;
    215    1    -0    0    0    4.93    0    1.00226526    -25.3184297    110    18    1.1    0.9;
    216    1    155.6    54.7    0    2.21    0    1.03693243    -24.0373585    220    5    1.1    0.9;
    217    1    105.2    0.1    0    7.36    0    1.03236853    -2.07243013    220    5    1.1    0.9;
    218    1    69.83    15.12    0    2.23    0    1.04833076    -12.4617235    220    5    1.1    0.9;
    219    2    0    0    0    0    0    1.056623    -15.1515921    380    7    1.1    0.9;
    220    2    0    0    0    0    0    1.047116    -14.3901529    380    6    1.1    0.9;
    221    2    0    0    0    0    0    1.030636    -19.4033348    380    5    1.1    0.9;
    222    2    0    0    0    0    0    1.030494    65.2849287    150    1    1.1    0.9;
    223    1    27.03    8.8    0    1.84    0    1.02945971    -18.7436861    110    21    1.1    0.9;
    224    1    2.6    0.5    0    0.14    0    0.999492969    -17.4079508    110    18    1.1    0.9;
    225    1    0    0    0    1.15    0    1.05856772    -19.5563363    220    5    1.1    0.9;
    226    1    14.62    4.8    0    1.02    0    1.02569711    -31.2644735    110    12    1.1    0.9;
    227    1    -0    0    0    2.55    0    1.03707052    -20.677866    220    7    1.1    0.9;
    228    1    -23.43    57.4    0    0    0    1.03976057    -6.62113294    150    2    1.1    0.9;
    229    1    426.6    93.7    0    80.94    0    1.04301542    -26.2202035    380    6    1.1    0.9;
    230    1    152.07    22.52    0    7.87    0    1.00493753    -46.6784386    220    4    1.1    0.9;
    231    1    -0.13    -1    0    0    0    1.01290474    24.2490711    110    8    1.1    0.9;
    232    1    0    0    0    0.7    0    1.01269467    -20.997551    150    9    1.1    0.9;
    233    1    2.5    3.8    0    0.15    0    0.951005305    -28.1053634    110    18    1.1    0.9;
    234    1    16.7    2.4    0    0.87    0    1.01153936    -21.0832922    154    1    1.1    0.9;
    235    1    34.04    4.4    0    1.25    0    0.988720754    -38.724065    110    22    1.1    0.9;
    236    1    45.85    7    0    1.05    0    1.02355349    -53.9691158    220    4    1.1    0.9;
    237    1    0    -0    0    30.97    0    1.031719    39.2130706    380    3    1.1    0.9;
    238    1    0    -0    0    19.36    0    1.04271903    -47.3489038    220    6    1.1    0.9;
    239    2    0    0    0    0    0    1.018711    -23.7071371    110    19    1.1    0.9;
    240    1    0    0    0    0    0    1.0240887    -27.3373265    150    9    1.1    0.9;
    241    1    -0    0    0    3.95    0    1.03565728    59.6854613    220    3    1.1    0.9;
    242    1    167.9    18.2    0    5.97    0    1.0346615    -1.92792099    220    3    1.1    0.9;
    243    1    0    -0.01    0    13.49    0    1.01739313    17.7225849    150    8    1.1    0.9;
    244    1    -0    -0    0    0.68    0    1.01836035    5.89482553    150    8    1.1    0.9;
    245    1    16.62    5.5    0    1.34    0    1.01108211    -27.6059951    110    21    1.1    0.9;
    246    2    0    0    0    0    0    1.06685    -20.5067993    220    1    1.1    0.9;
    247    1    0    0    0    0.72    0    0.988128248    -21.4924015    110    18    1.1    0.9;
    248    2    0    0    0    0    0    1.043991    13.0323686    380    13    1.1    0.9;
    249    1    -0    -0    0    26.3    0    1.0024274    -42.6747422    220    4    1.1    0.9;
    250    1    0    0    0    13.85    0    1.05231661    10.6798834    380    3    1.1    0.9;
    251    1    118.4    16.9    0    8.02    0    1.014818    12.6715147    154    1    1.1    0.9;
    252    1    -0    0    0    2.66    0    1.04215183    47.195908    220    3    1.1    0.9;
    253    1    0    -0    0    4.06    0    1.0292606    -20.3606308    220    1    1.1    0.9;
    254    1    -0    -0    0.135493    12.74062    0    1.0676154    -25.2376114    380    21    1.1    0.9;
    255    2    0    0    0    0    0    1.059597    -13.4021236    380    16    1.1    0.9;
    256    1    0    -0    0    7.09    0    1.03602595    -35.5447267    220    6    1.1    0.9;
    257    1    113.9    24.5    0    6.72    0    1.02709719    -45.9754624    220    4    1.1    0.9;
    258    1    88    12.6    0    22.25    0    1.03550089    -21.116975    154    1    1.1    0.9;
    259    1    42.67    12.11    0    14.84    0    1.01498502    -29.277992    150    9    1.1    0.9;
    260    1    216.8    40.5    0    5.91    0    1.02396637    -11.0974522    220    3    1.1    0.9;
    261    1    -0    0    0    1.29    0    1.05266837    -45.4928984    380    10    1.1    0.9;
    262    2    0    0    0    0    0    1.033795    10.8813553    220    13    1.1    0.9;
    263    2    0    0    0    0    0    1.028681    3.64599927    154    1    1.1    0.9;
    264    1    38.74    9    0    0.57    0    1.0104473    -46.7278757    220    4    1.1    0.9;
    265    1    350.4    29.3    0    19.31    0    1.05389257    -25.1254028    220    11    1.1    0.9;
    266    1    0    -0    0    140.96    0    1.05561167    -42.1793269    380    4    1.1    0.9;
    267    1    103.8    2.7    0    3.33    0    1.00896812    -51.3789335    220    4    1.1    0.9;
    268    1    -0.13    -1    0    0    0    1.04053101    27.6645031    220    8    1.1    0.9;
    269    1    0    -0    0    0.66    0    1.01632617    -37.9680217    110    22    1.1    0.9;
    270    1    -0    0    0    6.34    0    1.03838228    67.215206    380    1    1.1    0.9;
    271    1    96.7    26.8    0    0    0    1.03419869    -7.00985857    150    2    1.1    0.9;
    272    1    0    0    0    19.54    0    1.0509996    -28.4793605    150    9    1.1    0.9;
    273    1    -0    -0    0    14.87    0    1.05502371    -24.6363497    220    23    1.1    0.9;
    274    1    19.02    6    0    0.25    0    1.01619307    -24.8221829    110    21    1.1    0.9;
    275    1    102.1    25.3    0    1.11    0    1.01496292    2.04724463    150    8    1.1    0.9;
    276    1    -0    0    0    2.44    0    1.0461508    64.3109298    220    3    1.1    0.9;
    277    1    0    0    0    0    0    1.01717082    -25.7262282    150    9    1.1    0.9;
    278    2    0    0    0    0    0    1.014153    -26.8826998    110    18    1.1    0.9;
    279    1    8.31    3    0    0.99    0    1.00159189    -23.3699343    110    19    1.1    0.9;
    280    1    119.6    29.6    0    5.34    0    1.03157988    -10.7992627    220    5    1.1    0.9;
    281    1    -0    -0    0    18.07    0    1.03482534    13.9382867    380    8    1.1    0.9;
    282    2    0    0    0    0    0    1.077605    -10.0773084    380    18    1.1    0.9;
    283    1    27.33    11.9    0    1.17    0    1.03022922    -11.4340206    220    5    1.1    0.9;
    284    1    191.2    -3.4    0    19.21    0    1.02125866    -48.6012119    220    4    1.1    0.9;
    285    1    0    0    0.029916    18.291787    0    1.03302244    67.0801041    380    1    1.1    0.9;
    286    1    101.6    14.5    0    1.94    0    1.01692001    7.6951204    154    1    1.1    0.9;
    287    1    177.1    66.9    0    71.03    0    1.05850845    -14.1224595    380    16    1.1    0.9;
    288    1    0    0    0    0.3    0    1.06468915    -17.9446808    150    9    1.1    0.9;
    289    2    0    0    0    0    0    1.046783    -30.2504627    220    6    1.1    0.9;
    290    1    53.46    18.7    0    1.64    0    1.02689338    -19.3768241    220    20    1.1    0.9;
    291    1    0    -0    0    12.73    0    1.03789993    5.04781024    220    14    1.1    0.9;
    292    1    13.82    1.4    0    0.7    0    1.04484483    -14.4510228    220    5    1.1    0.9;
    293    1    85.1    67    0    0.18    0    1.07192023    -19.2108247    150    9    1.1    0.9;
    294    2    0    0    0    0    0    1.003375    -0.111113357    400    1    1.1    0.9;
    295    1    0    0    0    0.08    0    1.01921127    -28.0204683    220    6    1.1    0.9;
    296    1    189.3    76.7    0    3.24    0    0.993448539    27.5248399    220    3    1.1    0.9;
    297    1    23.73    9.4    0    1.45    0    1.03233978    5.33194473    150    8    1.1    0.9;