function mpc = case2746wop_resqlim
%CASE2746WOP_RESQLIM

%% MATPOWER Case Format : Version 2
mpc.version = '2';

%%-----  Power Flow Data  -----%%
%% system MVA base
mpc.baseMVA = 100;

%% bus data
%	bus_i	type	Pd	Qd	Gs	Bs	area	Vm	Va	baseKV	zone	Vmax	Vmin	lam_P	lam_Q	mu_Vmax	mu_Vmin
mpc.bus = [
	1	1	0	0	0	0	1	1.08075326	-6.19620817	220	1	1.11	0.95	91.0752	0.1612	0.0000	0.0000;
	2	1	0	0	0	0	1	1.08282292	-2.73247513	220	1	1.11	0.95	90.2372	0.0981	0.0000	0.0000;
	3	1	0	0	0	0	1	1.05979742	-24.176834	220	1	1.11	0.95	99.4746	0.0556	0.0000	0.0000;
	4	1	0	0	0	0	1	1.07044342	-9.37216532	220	1	1.11	0.95	92.5348	0.2170	0.0000	0.0000;
	5	1	0	0	0	0	1	1.07045738	-9.37889678	220	1	1.11	0.95	92.5362	0.2166	0.0000	0.0000;
	6	1	0	0	0	0	1	1.05628944	-18.0614457	220	1	1.11	0.95	95.7776	0.0797	0.0000	0.0000;
	7	1	0	0	0	0	1	1.05636321	-18.0580024	220	1	1.11	0.95	95.7746	0.0792	0.0000	0.0000;
	8	1	0	0	0	-50	1	1.01608041	-15.7456857	400	1	1.05	0.95	95.4057	-0.1452	0.0000	0.0000;
	9	1	0	0	0	0	1	1.01611149	-15.748787	400	1	1.05	0.95	95.4074	-0.1448	0.0000	0.0000;
	10	1	0	0	0	0	1	1.04978631	-18.057003	220	1	1.11	0.95	96.2651	0.1446	0.0000	0.0000;
	11	1	0	0	0	0	1	1.04971551	-18.0713043	220	1	1.11	0.95	96.2675	0.1441	0.0000	0.0000;
	12	1	0	0	0	0	1	1.04976221	-18.0643788	220	1	1.11	0.95	96.2643	0.1418	0.0000	0.0000;
	13	1	0	0	0	-50	1	1.0073968	-13.829856	400	1	1.05	0.95	94.7302	0.1268	0.0000	0.0000;
	14	1	0	0	0	0	1	1.00749666	-13.8240878	400	1	1.05	0.95	94.7274	0.1254	0.0000	0.0000;
	15	1	0	0	0	0	1	1.0258293	-17.1392599	400	1	1.05	0.95	95.2293	-1.3509	0.0000	0.0000;
	16	1	0	0	0	0	1	1.0258293	-17.1392599	400	1	1.05	0.95	95.2293	-1.3509	0.0000	0.0000;
	17	2	2.302	31	0	0	1	1.09088	-20.0984865	220	1	1.11	0.95	97.2041	-0.0000	0.0000	0.0000;
	18	2	9.7	40	0	0	1	1.09091	-20.0999123	220	1	1.11	0.95	97.2054	0.0000	0.0000	0.0000;
	19	1	0	0	0	0	1	1.07393396	-8.53694547	220	1	1.11	0.95	92.1699	0.2155	0.0000	0.0000;
	20	1	0	0	0	0	1	1.07392989	-8.53321061	220	1	1.11	0.95	92.1708	0.2158	0.0000	0.0000;
	21	1	0	0	0	0	1	1.06861845	-19.8349729	220	1	1.11	0.95	97.1328	0.0143	0.0000	0.0000;
	22	1	0	0	0	0	1	1.06861845	-19.8349729	220	1	1.11	0.95	97.1328	0.0143	0.0000	0.0000;
	23	1	0	0	0	0	1	1.05055472	-18.0098428	220	1	1.11	0.95	96.1970	0.0700	0.0000	0.0000;
	24	1	0	0	0	0	1	1.07655112	-6.3781393	220	1	1.11	0.95	91.4932	0.1722	0.0000	0.0000;
	25	1	0	0	0	-50	1	0.999417955	-18.440474	400	1	1.05	0.95	97.1084	0.9915	0.0000	0.0000;
	26	2	28.565	42.054	0	0	1	1.09091	-6.00809656	220	1	1.11	0.95	90.9717	-0.0000	0.0000	0.0000;
	27	2	85.005	122.06	0	0	1	1.09091	-2.51988067	220	1	1.11	0.95	90.1299	0.0000	1246.2206	0.0000;
	28	3	44.783	80	0	0	1	1.0325	-4.412957	400	1	1.05	0.95	91.1767	-0.0000	0.0000	0.0000;
	29	1	60.097	90	0	0	1	1.03244085	-4.40859727	400	1	1.05	0.95	91.1718	-0.0017	0.0000	0.0000;
	30	1	0	0	0	0	1	1.05530683	-19.2599402	220	1	1.11	0.95	97.0716	0.1704	0.0000	0.0000;
	31	1	0	0	0	0	1	1.03142429	-5.66983118	400	1	1.05	0.95	91.2070	-0.3208	0.0000	0.0000;
	32	1	0	0	0	0	1	1.04758344	-18.2113408	220	1	1.11	0.95	96.3326	0.1655	0.0000	0.0000;
	33	1	0	0	0	0	1	1.07655541	-6.37720628	220	1	1.11	0.95	91.4930	0.1722	0.0000	0.0000;
	34	1	0	0	0	0	1	1.07140174	-12.4361359	220	1	1.11	0.95	93.7432	0.1876	0.0000	0.0000;
	35	1	0	0	0	0	1	1.09114095	-16.063165	220	2	1.11	0.95	94.7883	-0.8657	0.0000	0.0000;
	36	1	0	0	0	0	1	1.08020311	-16.6396152	220	2	1.11	0.95	95.3394	-0.8172	0.0000	0.0000;
	37	1	0	0	0	0	1	1.08846501	-15.6588465	220	2	1.11	0.95	94.7038	-1.0768	0.0000	0.0000;
	38	1	0	0	0	0	1	1.08844322	-15.6618284	220	2	1.11	0.95	94.7053	-1.0765	0.0000	0.0000;
	39	1	0	0	0	0	1	1.08683523	-17.1369804	220	2	1.11	0.95	95.6296	-0.6557	0.0000	0.0000;
	40	1	0	0	0	0	1	1.09884192	-14.846148	220	2	1.11	0.95	94.1415	-3.4975	20377.2614	0.0000;
	41	1	0	0	0	0	1	1.09875566	-14.8502808	220	2	1.11	0.95	94.1434	-3.4837	0.0000	0.0000;
	42	1	0	0	0	0	1	1.01807606	-14.9060509	400	2	1.05	0.95	94.2405	-2.4059	0.0000	0.0000;
	43	1	12	0	0	0	1	1.090986	-14.5488567	220	2	1.11	0.95	94.2528	-0.6891	0.0000	0.0000;
	44	2	24	0	0	0	1	1.09096	-14.5338217	220	2	1.11	0.95	94.2488	-0.6908	0.0000	0.0000;
	45	2	20	0	0	0	1	1.0325	-14.362002	400	2	1.05	0.95	94.5600	-0.5862	0.0000	0.0000;
	46	1	0	0	0	0	1	1.03245435	-14.3641774	400	2	1.05	0.95	94.5595	-0.5865	0.0000	0.0000;
	47	1	0	0	0	0	1	1.09764098	-15.2830359	220	2	1.11	0.95	94.4268	-3.3016	0.0000	0.0000;
	48	1	0	0	0	0	1	1.02261468	-18.6699084	400	2	1.05	0.95	95.6142	-0.6768	0.0000	0.0000;
	49	1	0	0	0	0	1	1.02259267	-18.6756554	400	2	1.05	0.95	95.6169	-0.6759	0.0000	0.0000;
	50	1	0	0	0	0	1	1.02824035	-14.8914184	400	2	1.05	0.95	94.6694	-0.6383	0.0000	0.0000;
	51	1	0	0	0	0	1	1.08710401	-16.2637659	220	2	1.11	0.95	95.0503	-0.6626	0.0000	0.0000;
	52	1	0	0	0	0	1	1.08711073	-16.2606323	220	2	1.11	0.95	95.0503	-0.6619	0.0000	0.0000;
	53	1	0	0	0	0	1	1.03310604	-15.3038245	400	2	1.05	0.95	94.6640	-1.0822	0.0000	0.0000;
	54	1	0	0	0	0	1	1.03312053	-15.3046118	400	2	1.05	0.95	94.6638	-1.0834	0.0000	0.0000;
	55	1	12	0	0	0	1	1.08984754	-14.7990203	220	2	1.11	0.95	94.2858	-1.1741	0.0000	0.0000;
	56	1	12	0	0	0	1	1.0898307	-14.7986561	220	2	1.11	0.95	94.2831	-1.1766	0.0000	0.0000;
	57	1	12	0	0	0	1	1.03387573	-15.0267912	400	2	1.05	0.95	94.4699	-1.2205	0.0000	0.0000;
	58	1	12	0	0	0	1	1.03386613	-15.0312594	400	2	1.05	0.95	94.4716	-1.2215	0.0000	0.0000;
	59	1	170.733	62	0	0	1	1.08428497	-15.6341684	220	2	1.11	0.95	94.7184	-0.7196	0.0000	0.0000;
	60	1	0	0	0	0	1	1.08436069	-15.6302684	220	2	1.11	0.95	94.7166	-0.7200	0.0000	0.0000;
	61	1	0	0	0	0	1	1.09406296	-15.4410116	220	2	1.11	0.95	94.4607	-2.8150	0.0000	0.0000;
	62	1	0	0	0	0	1	1.08932702	-15.4212906	220	2	1.11	0.95	94.7122	-1.2575	0.0000	0.0000;
	63	1	0	0	0	0	1	1.08930569	-15.4227656	220	2	1.11	0.95	94.7125	-1.2535	0.0000	0.0000;
	64	1	0	0	0	0	1	1.03321622	-16.2947477	400	2	1.05	0.95	94.8460	-0.9549	0.0000	0.0000;
	65	1	0	0	0	0	1	1.03318082	-16.3058019	400	2	1.05	0.95	94.8501	-0.9534	0.0000	0.0000;
	66	1	0	0	0	0	1	1.08818686	-16.3643854	220	2	1.11	0.95	95.0154	-0.9744	0.0000	0.0000;
	67	1	0	0	0	0	1	1.08914133	-16.2078027	220	2	1.11	0.95	94.9206	-0.9983	0.0000	0.0000;
	68	1	0	0	0	0	1	1.08718605	-15.585822	220	2	1.11	0.95	94.7452	-0.5656	0.0000	0.0000;
	69	1	0	0	0	0	1	1.07699598	-10.2621155	220	3	1.11	0.95	92.5536	-0.4363	0.0000	0.0000;
	70	1	6.8	0	0	0	1	1.09413153	-16.1868046	220	3	1.11	0.95	94.8577	-0.6622	0.0000	0.0000;
	71	1	11.331	2.43	0	0	1	1.09399752	-16.1941896	220	3	1.11	0.95	94.8625	-0.6605	0.0000	0.0000;
	72	1	0	0	0	0	1	1.08842937	-15.4524899	220	3	1.11	0.95	94.4287	0.0529	0.0000	0.0000;
	73	1	0	0	0	0	1	1.08848755	-15.4364264	220	3	1.11	0.95	94.4232	0.0520	0.0000	0.0000;
	74	1	0	0	0	0	1	1.02620804	-13.412394	220	3	1.11	0.95	92.8448	-0.0061	0.0000	0.0000;
	75	1	0	0	0	0	1	1.02602643	-13.4210107	220	3	1.11	0.95	92.8468	-0.0061	0.0000	0.0000;
	76	1	0	0	0	0	1	1.07913797	-19.9797556	220	3	1.11	0.95	96.4839	-0.1590	0.0000	0.0000;
	77	1	0	0	0	0	1	1.07911768	-19.9922457	220	3	1.11	0.95	96.4888	-0.1583	0.0000	0.0000;
	78	1	26.999	69.999	0	0	1	1.09350334	-14.3561824	220	3	1.11	0.95	93.8755	0.0000	0.0000	0.0000;
	79	1	8.999	20.999	0	0	1	1.08290159	-14.8595559	220	3	1.11	0.95	94.1106	-0.1274	0.0000	0.0000;
	80	1	10.085	1.376	0	0	1	1.07293174	-14.7552597	220	3	1.11	0.95	94.2409	0.1606	0.0000	0.0000;
	81	1	0	0	0	0	1	1.07301803	-14.7584284	220	3	1.11	0.95	94.2426	0.1602	0.0000	0.0000;
	82	1	34.999	107.999	0	0	1	1.02377217	-7.53147909	400	3	1.05	0.95	91.2673	-0.2746	0.0000	0.0000;
	83	1	0	0	0	0	1	1.06459746	-12.269682	220	3	1.11	0.95	92.2247	0.1083	0.0000	0.0000;
	84	1	0	0	0	0	1	1.06196672	-13.7329767	220	3	1.11	0.95	93.1712	0.0061	0.0000	0.0000;
	85	1	0	0	0	0	1	1.06214775	-13.7403188	220	3	1.11	0.95	93.1761	0.0057	0.0000	0.0000;
	86	1	44.148	10.561	0	0	1	1.07615147	-10.4147557	220	3	1.11	0.95	92.5076	-0.3943	0.0000	0.0000;
	87	1	0	0	0	0	1	1.07611795	-10.4214656	220	3	1.11	0.95	92.5093	-0.3942	0.0000	0.0000;
	88	1	0	0	0	0	1	1.0739368	-13.4027361	220	3	1.11	0.95	93.2279	0.1169	0.0000	0.0000;
	89	1	0	0	0	0	1	1.07404893	-13.4099651	220	3	1.11	0.95	93.2313	0.1172	0.0000	0.0000;
	90	1	0	0	0	0	1	1.07943443	-9.89684738	220	3	1.11	0.95	92.3093	-0.4196	0.0000	0.0000;
	91	1	0	0	0	0	1	1.07942572	-9.89211857	220	3	1.11	0.95	92.3084	-0.4230	0.0000	0.0000;
	92	1	0	0	0	0	1	1.02877062	-7.24944273	400	3	1.05	0.95	91.9021	-0.2194	0.0000	0.0000;
	93	1	0	0	0	0	1	1.0287593	-7.25010906	400	3	1.05	0.95	91.9019	-0.2193	0.0000	0.0000;
	94	1	0	0	0	0	1	1.07363018	-12.80079	220	3	1.11	0.95	92.6759	0.0145	0.0000	0.0000;
	95	1	0	0	0	0	1	1.07359895	-12.8022085	220	3	1.11	0.95	92.6753	0.0147	0.0000	0.0000;
	96	1	0	0	0	0	1	1.03485203	-13.0432558	220	3	1.11	0.95	92.5431	0.0805	0.0000	0.0000;
	97	1	0	0	0	0	1	1.03500306	-13.039078	220	3	1.11	0.95	92.5417	0.0805	0.0000	0.0000;
	98	1	17.111	6.317	0	0	1	1.08079782	-14.3353232	220	3	1.11	0.95	93.9483	-0.3273	0.0000	0.0000;
	99	1	0	0	0	0	1	1.08078828	-14.3292325	220	3	1.11	0.95	93.9468	-0.3292	0.0000	0.0000;
	100	1	0	0	0	0	1	1.09416788	-16.1684938	220	3	1.11	0.95	94.8491	-0.6629	0.0000	0.0000;
	101	1	0	0	0	0	1	1.09416104	-16.170773	220	3	1.11	0.95	94.8497	-0.6616	0.0000	0.0000;
	102	1	0	0	0	0	1	1.0791621	-19.1848589	220	3	1.11	0.95	96.1741	-0.0690	0.0000	0.0000;
	103	1	0	0	0	0	1	1.07913269	-19.1722325	220	3	1.11	0.95	96.1712	-0.0678	0.0000	0.0000;
	104	1	13.999	39.999	0	0	1	1.06492069	-12.9470687	220	3	1.11	0.95	92.7800	0.0000	0.0000	0.0000;
	105	2	0	0	0	0	1	1.065071	-12.9595237	220	3	1.11	0.95	92.7824	-0.0003	0.0000	0.0000;
	106	1	6.999	17.999	0	0	1	1.07422659	-12.5892103	220	3	1.11	0.95	92.7163	0.0000	0.0000	0.0000;
	107	1	7.999	14.999	0	0	1	1.07425886	-12.5880626	220	3	1.11	0.95	92.7189	0.0002	0.0000	0.0000;
	108	1	52.726	17.138	0	0	1	1.07971206	-13.6175276	220	3	1.11	0.95	93.7112	-0.5284	0.0000	0.0000;
	109	1	56.444	10.902	0	0	1	1.0797607	-13.6322762	220	3	1.11	0.95	93.7153	-0.5333	0.0000	0.0000;
	110	1	0	0	0	0	1	1.08824171	-15.6878629	220	3	1.11	0.95	94.7342	-0.0907	0.0000	0.0000;
	111	1	0	0	0	0	1	1.05648526	-13.8038842	220	3	1.11	0.95	93.5850	0.3044	0.0000	0.0000;
	112	1	0	0	0	0	1	1.05657967	-13.8082995	220	3	1.11	0.95	93.5870	0.3038	0.0000	0.0000;
	113	1	0	0	0	0	1	1.07873951	-14.9950861	220	3	1.11	0.95	94.3987	0.1266	0.0000	0.0000;
	114	1	0	0	0	0	1	1.0788466	-14.9900043	220	3	1.11	0.95	94.3959	0.1257	0.0000	0.0000;
	115	1	0	0	0	0	1	1.00683016	-10.6151049	400	3	1.05	0.95	92.5453	-0.1809	0.0000	0.0000;
	116	2	0	0	0	0	1	1.09071609	-14.6115675	220	3	1.11	0.95	94.0393	-0.1175	0.0000	0.0000;
	117	1	7.999	14.999	0	0	1	1.09084444	-14.6020533	220	3	1.11	0.95	94.0370	-0.1170	0.0000	0.0000;
	118	1	5.499	9.999	0	0	1	1.09331878	-15.2897665	220	3	1.11	0.95	94.4918	-0.2638	0.0000	0.0000;
	119	1	0	0	0	0	1	1.09334005	-15.2949451	220	3	1.11	0.95	94.4941	-0.2640	0.0000	0.0000;
	120	1	0	0	0	0	1	1.03355411	-15.0273474	400	3	1.05	0.95	94.4477	-0.9211	0.0000	0.0000;
	121	1	0	0	0	0	1	1.03357264	-15.01981	400	3	1.05	0.95	94.4444	-0.9215	0.0000	0.0000;
	122	1	0	0	0	0	1	1.01839163	-10.5426919	400	3	1.05	0.95	92.6467	-0.2911	0.0000	0.0000;
	123	1	0	0	0	0	1	1.0184671	-10.5392442	400	3	1.05	0.95	92.6469	-0.2918	0.0000	0.0000;
	124	1	0	0	0	0	1	1.08825399	-15.7205883	220	3	1.11	0.95	94.7830	-0.1073	0.0000	0.0000;
	125	1	19.213	21.474	0	0	1	1.06262277	-11.8206493	220	3	1.11	0.95	92.2959	0.0000	312.7178	0.0000;
	126	1	30.672	33.602	0	0	1	1.06247748	-11.8311415	220	3	1.11	0.95	92.3016	0.0014	0.0000	0.0000;
	127	1	27.999	65.999	0	0	1	1.00853675	-9.3936621	400	3	1.05	0.95	92.1616	-0.1196	0.0000	0.0000;
	128	1	0	0	0	0	1	1.00849504	-9.40603299	400	3	1.05	0.95	92.1654	-0.1198	0.0000	0.0000;
	129	1	0	0	0	0	1	1.0753394	-10.5538862	220	3	1.11	0.95	92.5556	-0.3920	0.0000	0.0000;
	130	1	0	0	0	0	1	1.07532399	-10.5544622	220	3	1.11	0.95	92.5538	-0.3914	0.0000	0.0000;
	131	1	0	0	0	0	1	1.07706439	-10.3717067	220	3	1.11	0.95	92.4642	-0.3832	0.0000	0.0000;
	132	2	271.999	-62.001	0	0	1	1.080497	-20.8398395	220	3	1.11	0.95	96.8483	-0.2373	0.0000	0.0000;
	133	2	266.5	-24.8	0	0	1	1.07838235	-20.8242425	220	3	1.11	0.95	96.8472	-0.1873	0.0000	0.0000;
	134	1	14.931	12.88	0	0	1	1.08784143	-14.436663	220	4	1.11	0.95	94.6117	-0.0000	0.0000	0.0000;
	135	2	8.013	6.525	0	0	1	1.08771645	-14.4457162	220	4	1.11	0.95	94.6144	0.0011	0.0000	0.0000;
	136	1	0	0	0	0	1	1.07550217	-18.01421	220	4	1.11	0.95	95.3127	0.0668	0.0000	0.0000;
	137	1	0	0	0	0	1	1.08160227	-17.5056707	220	4	1.11	0.95	95.0213	0.0193	0.0000	0.0000;
	138	1	0	0	0	0	1	1.03735554	-14.9112726	400	4	1.05	0.95	93.9007	-0.5766	0.0000	0.0000;
	139	1	0	0	0	0	1	1.03736061	-14.9069938	400	4	1.05	0.95	93.8981	-0.5778	0.0000	0.0000;
	140	1	0	0	0	0	1	1.1024357	-24.131862	220	4	1.11	0.95	99.9483	-2.0055	0.0000	0.0000;
	141	1	0	0	0	0	1	1.11545538	-26.9336354	220	4	1.11	0.95	101.9983	-1.4777	0.0000	0.0000;
	142	1	0	0	0	0	1	1.11545538	-26.9336354	220	4	1.11	0.95	101.9983	-1.4777	0.0000	0.0000;
	143	1	0	0	0	0	1	1.10339756	-25.4080231	220	4	1.11	0.95	100.4360	-1.3126	0.0000	0.0000;
	144	1	0	0	0	0	1	1.08248784	-16.6015091	220	4	1.11	0.95	93.9070	-0.1480	0.0000	0.0000;
	145	1	0	0	0	0	1	1.08248784	-16.6015091	220	4	1.11	0.95	93.9070	-0.1480	0.0000	0.0000;
	146	2	55.255	6.955	0	0	1	1.09012	-18.1124397	220	4	1.11	0.95	96.4200	-0.0195	0.0000	0.0000;
	147	2	10.077	8.4	0	0	1	1.09015491	-18.1223277	220	4	1.11	0.95	96.4222	-0.0209	0.0000	0.0000;
	148	1	11.5	6.86	0	0	1	1.11139177	-26.0317872	220	4	1.11	0.95	101.4573	-1.5655	0.0000	0.0000;
	149	1	4.423	1.347	0	0	1	1.11135587	-26.0454863	220	4	1.11	0.95	101.4641	-1.5657	0.0000	0.0000;
	150	1	12.633	6.828	0	0	1	1.04351433	-27.6243629	400	4	1.05	0.95	101.8467	-1.7352	0.0000	0.0000;
	151	1	12.397	10.045	0	0	1	1.04349362	-27.6301756	400	4	1.05	0.95	101.8493	-1.7356	0.0000	0.0000;
	152	1	0	0	0	0	1	1.08941411	-24.2953296	220	4	1.11	0.95	100.3568	-1.5484	0.0000	0.0000;
	153	1	0	0	0	0	1	1.08908873	-23.4225729	220	4	1.11	0.95	99.1685	-0.6388	0.0000	0.0000;
	154	1	0	0	0	0	1	1.08913597	-23.416357	220	4	1.11	0.95	99.1650	-0.6388	0.0000	0.0000;
	155	2	33.593	44.976	0	0	1	1.09091	-15.7655472	220	4	1.11	0.95	94.1898	0.0000	0.0000	0.0000;
	156	2	33.832	45.07	0	0	1	1.09091	-15.8132192	220	4	1.11	0.95	94.4125	0.0000	0.0000	0.0000;
	157	1	0	0	0	0	1	1.09091	-15.7655472	220	4	1.11	0.95	94.1898	0.0000	0.0000	0.0000;
	158	1	0	0	0	0	1	1.03294506	-14.7398483	400	4	1.05	0.95	94.1427	-0.1131	0.0000	0.0000;
	159	1	8.687	17.49	0	0	1	1.03292785	-14.7377739	400	4	1.05	0.95	94.1427	-0.1124	0.0000	0.0000;
	160	1	0	0	0	0	1	1.11359762	-26.9774285	220	4	1.11	0.95	102.0466	-1.6448	0.0000	0.0000;
	161	1	0	0	0	0	1	1.11359762	-26.9774285	220	4	1.11	0.95	102.0466	-1.6448	0.0000	0.0000;
	162	1	0	0	0	0	1	1.03749124	-14.00214	400	4	1.05	0.95	93.1599	-2.0147	8269.9647	0.0000;
	163	1	0	0	0	0	1	1.03555301	-13.0549571	400	4	1.05	0.95	92.9831	-0.9545	0.0000	0.0000;
	164	1	0	0	0	0	1	1.03557278	-13.0617516	400	4	1.05	0.95	92.9864	-0.9533	0.0000	0.0000;
	165	2	5.495	9.587	0	0	1	1.09084	-18.3718203	220	4	1.11	0.95	96.5419	-0.0000	0.0000	0.0000;
	166	1	10.099	4.886	0	0	1	1.09083896	-18.3891501	220	4	1.11	0.95	96.5512	0.0012	0.0000	0.0000;
	167	1	14.36	13.623	0	0	1	1.09081138	-18.3731139	220	4	1.11	0.95	96.5424	0.0004	0.0000	0.0000;
	168	1	0	0	0	0	1	1.10304065	-29.7492085	220	4	1.11	0.95	103.3368	-2.2224	0.0000	0.0000;
	169	1	0	0	0	0	1	1.11855676	-27.0275316	220	4	1.11	0.95	102.0493	-1.5190	0.0000	0.0000;
	170	1	0	0	0	0	1	1.11000609	-25.1827868	220	4	1.11	0.95	100.5561	-2.7733	11480.4692	0.0000;
	171	1	0	0	0	0	1	1.10987506	-25.1815921	220	4	1.11	0.95	100.5570	-2.7618	0.0000	0.0000;
	172	1	0	0	0	0	1	0.970086912	-26.3243736	400	4	1.05	0.95	100.9598	-2.1379	0.0000	0.0000;
	173	1	0	0	0	0	1	0.970086912	-26.3243736	400	4	1.05	0.95	100.9598	-2.1379	0.0000	0.0000;
	174	1	0	0	0	0	1	1.0710738	-22.6509534	220	4	1.11	0.95	99.3692	-0.3413	0.0000	0.0000;
	175	1	0	0	0	0	1	1.07108225	-22.6489873	220	4	1.11	0.95	99.3693	-0.3411	0.0000	0.0000;
	176	1	0	0	0	0	1	1.10832754	-25.4182283	220	4	1.11	0.95	100.6723	-2.6840	0.0000	0.0000;
	177	1	0	0	0	0	1	1.07899172	-17.446607	220	4	1.11	0.95	94.9201	-0.0123	0.0000	0.0000;
	178	1	0	0	0	0	1	1.0789958	-17.4420053	220	4	1.11	0.95	94.9186	-0.0124	0.0000	0.0000;
	179	1	0	0	0	0	1	1.07562563	-16.5317763	220	4	1.11	0.95	94.3367	0.0111	0.0000	0.0000;
	180	1	0	0	0	0	1	1.07562563	-16.5317763	220	4	1.11	0.95	94.3367	0.0111	0.0000	0.0000;
	181	1	0	0	0	0	1	1.07000752	-23.473366	220	4	1.11	0.95	99.6432	-0.3535	0.0000	0.0000;
	182	1	0	0	0	0	1	1.04322121	-26.0955777	220	5	1.11	0.95	101.1180	0.8305	0.0000	0.0000;
	183	1	0	0	0	0	1	1.09873653	-33.3885799	220	5	1.11	0.95	104.4421	-1.8081	1861.5694	0.0000;
	184	1	0	0	0	0	1	1.01933194	-33.0023961	400	5	1.05	0.95	104.1476	-1.2745	0.0000	0.0000;
	185	1	0	0	0	0	1	1.0193866	-32.9955184	400	5	1.05	0.95	104.1440	-1.2754	0.0000	0.0000;
	186	1	0	0	0	0	1	0.986152968	-35.2981616	400	5	1.05	0.95	105.1032	0.3110	0.0000	0.0000;
	187	1	0	0	0	0	1	0.986171948	-35.3062006	400	5	1.05	0.95	105.1071	0.3094	0.0000	0.0000;
	188	1	0	0	0	0	1	1.05285718	-33.4537115	220	5	1.11	0.95	105.5364	-0.0614	0.0000	0.0000;
	189	1	0	0	0	0	1	1.05292084	-33.4573339	220	5	1.11	0.95	105.5370	-0.0635	0.0000	0.0000;
	190	1	0	0	0	0	1	1.03545225	-28.1887978	220	5	1.11	0.95	102.4103	1.1790	0.0000	0.0000;
	191	1	0	0	0	0	1	1.03551557	-28.1866984	220	5	1.11	0.95	102.4091	1.1774	0.0000	0.0000;
	192	1	0	0	0	0	1	0.979912883	-27.6401154	400	5	1.05	0.95	101.7977	1.2095	0.0000	0.0000;
	193	1	0	0	0	0	1	1.04936637	-25.6729611	220	5	1.11	0.95	100.9086	0.8349	0.0000	0.0000;
	194	1	0	0	0	0	1	1.04935523	-25.6698963	220	5	1.11	0.95	100.9088	0.8356	0.0000	0.0000;
	195	1	0	0	0	0	1	0.988452538	-34.4014864	400	5	1.05	0.95	104.9447	0.3712	0.0000	0.0000;
	196	1	0	0	0	0	1	0.988438586	-34.3990775	400	5	1.05	0.95	104.9441	0.3718	0.0000	0.0000;
	197	1	0	0	0	0	1	1.04789533	-28.0856586	220	5	1.11	0.95	102.9941	0.7578	0.0000	0.0000;
	198	1	0	0	0	0	1	1.04787137	-28.078572	220	5	1.11	0.95	102.9894	0.7586	0.0000	0.0000;
	199	1	0	0	0	0	1	1.00670131	-34.5349279	400	5	1.05	0.95	104.7693	-0.7581	0.0000	0.0000;
	200	1	0	0	0	0	1	1.00677707	-34.5216401	400	5	1.05	0.95	104.7640	-0.7604	0.0000	0.0000;
	201	1	0	0	0	0	1	1.02625963	-27.9269657	220	5	1.11	0.95	102.9710	1.4267	0.0000	0.0000;
	202	1	0	0	0	0	1	1.02625156	-27.9209174	220	5	1.11	0.95	102.9701	1.4270	0.0000	0.0000;
	203	1	0	0	0	0	1	1.03151387	-25.4519175	220	5	1.11	0.95	101.7793	1.3935	0.0000	0.0000;
	204	1	0	0	0	0	1	1.03141805	-25.4661684	220	5	1.11	0.95	101.7861	1.3950	0.0000	0.0000;
	205	1	619.912	0	0	0	1	0.983787317	-37.7199234	400	5	1.05	0.95	105.9174	0.0002	0.0000	0.0000;
	206	1	205.255	0	0	0	1	0.983776395	-37.7178351	400	5	1.05	0.95	105.9164	0.0017	0.0000	0.0000;
	207	1	0	0	0	0	1	1.08668834	-33.7733918	220	5	1.11	0.95	105.0012	-1.5779	0.0000	0.0000;
	208	1	0	0	0	0	1	1.08668311	-33.7766046	220	5	1.11	0.95	105.0011	-1.5767	0.0000	0.0000;
	209	1	5.821	1.5	0	0	1	1.07689067	-20.8153574	110	1	1.12	0.95	97.9657	-1.5205	0.0000	0.0000;
	210	1	4.366	0.5	0	0	1	1.06265088	-28.5458276	110	1	1.12	0.95	103.1849	0.2755	0.0000	0.0000;
	211	1	7.761	2	0	0	1	1.0601822	-19.4628125	110	1	1.12	0.95	96.0243	0.2300	0.0000	0.0000;
	212	1	6.306	5.6	0	0	1	1.01312206	-22.8981599	110	1	1.12	0.95	101.0962	1.8801	0.0000	0.0000;
	213	1	2.523	0.6	0	0	1	1.03872527	-5.41686359	110	1	1.12	0.95	91.0765	0.2527	0.0000	0.0000;
	214	1	4.851	1.3	0	0	1	1.05661906	-8.07878221	110	1	1.12	0.95	91.6312	0.2877	0.0000	0.0000;
	215	1	19.194	8	0	0	1	1.10510332	-18.9773279	110	1	1.12	0.95	94.4391	-2.1719	0.0000	0.0000;
	216	1	14.553	1.5	0	0	1	1.10428672	-19.1686085	110	1	1.12	0.95	94.6502	-2.3622	0.0000	0.0000;
	217	1	4.851	1	0	0	1	1.10436653	-19.1329995	110	1	1.12	0.95	94.6099	-2.3129	0.0000	0.0000;
	218	1	4.851	1	0	0	1	1.10398092	-19.2546532	110	1	1.12	0.95	94.6648	-2.1363	0.0000	0.0000;
	219	1	8.247	1.6	0	0	1	1.04356817	-22.3355015	110	1	1.12	0.95	99.1137	0.2069	0.0000	0.0000;
	220	1	5.822	1.5	0	0	1	1.0456803	-20.5621448	110	1	1.12	0.95	97.3759	0.5103	0.0000	0.0000;
	221	1	0	0	0	0	1	1.06254364	-18.1592483	110	1	1.12	0.95	93.9195	-1.0326	0.0000	0.0000;
	222	1	6.306	1.5	0	0	1	1.06555297	-12.6188926	110	1	1.12	0.95	94.1379	-0.3592	0.0000	0.0000;
	223	1	15.523	2.6	0	0	1	1.0529007	-21.7031695	110	1	1.12	0.95	97.6954	0.3471	0.0000	0.0000;
	224	1	1.649	0.4	0	0	1	1.02754386	-7.50445185	110	1	1.12	0.95	92.5272	0.3817	0.0000	0.0000;
	225	1	2.425	0.2	0	0	1	1.04961689	-24.2856346	110	1	1.12	0.95	99.5630	1.1050	0.0000	0.0000;
	226	1	2.911	0.5	0	0	1	1.08261798	-24.98728	110	1	1.12	0.95	99.4114	-0.3934	0.0000	0.0000;
	227	1	10.672	0.499	0	0	1	1.09346665	-20.1532504	110	1	1.12	0.95	96.3484	-2.3882	0.0000	0.0000;
	228	1	6.791	2	0	0	1	1.05090176	-22.2118318	110	1	1.12	0.95	98.0529	0.4670	0.0000	0.0000;
	229	1	2.231	1.05	0	0	1	1.06357433	-12.371752	110	1	1.12	0.95	93.6474	0.1449	0.0000	0.0000;
	230	2	2.231	1.05	0	0	1	1.06392	-12.3750487	110	1	1.12	0.95	93.6442	0.1324	0.0000	0.0000;
	231	1	11.642	6	0	0	1	1.04299731	-21.9182828	110	1	1.12	0.95	98.2694	0.6446	0.0000	0.0000;
	232	1	4.366	1	0	0	1	1.05762223	-7.96873301	110	1	1.12	0.95	91.5210	0.2702	0.0000	0.0000;
	233	1	8.732	1	0	0	1	1.05842787	-16.0030193	110	1	1.12	0.95	95.3342	-0.9151	0.0000	0.0000;
	234	1	16.493	14	0	0	1	1.03571811	-6.09642088	110	1	1.12	0.95	91.0046	0.4646	0.0000	0.0000;
	235	1	3.978	0.5	0	0	1	1.05257595	-24.8856132	110	1	1.12	0.95	100.5388	0.2160	0.0000	0.0000;
	236	1	8.926	3.64	0	0	1	1.06550872	-11.6537902	110	1	1.12	0.95	92.7618	0.0930	0.0000	0.0000;
	237	1	4.463	0.3	0	0	1	1.05218363	-24.9375992	110	1	1.12	0.95	100.5926	0.2108	0.0000	0.0000;
	238	1	5.821	1	0	0	1	1.07670681	-22.2742722	110	1	1.12	0.95	98.2355	-0.8153	0.0000	0.0000;
	239	1	4.305	1.175	0	0	1	1.04301058	-22.3456066	110	1	1.12	0.95	98.9912	0.4628	0.0000	0.0000;
	240	1	7.471	1	0	0	1	1.03494784	-28.8703816	110	1	1.12	0.95	103.2622	1.0614	0.0000	0.0000;
	241	1	4.463	1.67	0	0	1	1.06635006	-11.8623405	110	1	1.12	0.95	93.0383	0.0889	0.0000	0.0000;
	242	1	6.791	0.7	0	0	1	1.09578585	-9.4205503	110	1	1.12	0.95	90.5300	-2.1839	0.0000	0.0000;
	243	1	0	0	0	0	1	1.09586685	-9.39534309	110	1	1.12	0.95	90.5298	-2.1929	0.0000	0.0000;
	244	1	2.231	1.4	0	0	1	1.08000782	-19.8766294	110	1	1.12	0.95	96.4735	0.0294	0.0000	0.0000;
	245	1	0	0	0	0	1	1.04117434	-3.72166748	110	1	1.12	0.95	90.2340	0.1585	0.0000	0.0000;
	246	2	1.982	5	0	0	1	1.03502	-0.0387085193	22	1	1.12	0.95	90.4966	-0.0000	0.0000	0.0000;
	247	1	6.792	1.5	0	0	1	1.07925865	-26.0708913	110	1	1.12	0.95	100.8349	-0.2724	0.0000	0.0000;
	248	1	1.94	0.5	0	0	1	1.07811614	-26.8724352	110	1	1.12	0.95	100.0227	0.2658	0.0000	0.0000;
	249	1	1.94	0.5	0	0	1	1.08785249	-25.1775346	110	1	1.12	0.95	99.5626	-0.4745	0.0000	0.0000;
	250	1	2.911	0.5	0	0	1	1.04768381	-29.9610492	110	1	1.12	0.95	106.3598	0.1628	0.0000	0.0000;
	251	1	2.814	0.5	0	0	1	1.05674401	-21.9616976	110	1	1.12	0.95	97.7534	0.6924	0.0000	0.0000;
	252	1	10.672	7	0	0	1	1.06142625	-17.3888001	110	1	1.12	0.95	95.4129	0.6761	0.0000	0.0000;
	253	1	21.345	5	0	0	1	1.042984	-22.1618777	110	1	1.12	0.95	98.4146	0.6450	0.0000	0.0000;
	254	1	8.732	2	0	0	1	1.04911991	-30.1750693	110	1	1.12	0.95	103.5618	0.7875	0.0000	0.0000;
	255	1	18.433	1	0	0	1	1.08678859	-24.413832	110	1	1.12	0.95	98.9488	-0.7426	0.0000	0.0000;
	256	1	3.396	0.5	0	0	1	1.0873651	-24.6054571	110	1	1.12	0.95	99.0170	-0.6522	0.0000	0.0000;
	257	1	2.425	0.35	0	0	1	1.03745998	-5.11374969	110	1	1.12	0.95	91.2042	0.3070	0.0000	0.0000;
	258	1	2.425	0.35	0	0	1	1.03739691	-5.12464041	110	1	1.12	0.95	91.2077	0.3079	0.0000	0.0000;
	259	1	6.791	2.54	0	0	1	1.05644458	-12.9752568	110	1	1.12	0.95	94.3128	0.3101	0.0000	0.0000;
	260	1	4.851	1	0	0	1	1.04568375	-30.3564972	110	1	1.12	0.95	106.8301	0.1382	0.0000	0.0000;
	261	1	2.134	0.5	0	0	1	1.06561173	-19.7960827	110	1	1.12	0.95	96.2820	0.0149	0.0000	0.0000;
	262	1	7.276	1.6	0	0	1	1.05348391	-19.4464246	110	1	1.12	0.95	96.6175	0.2253	0.0000	0.0000;
	263	1	0.776	0.5	0	0	1	1.04800056	-26.1321036	110	1	1.12	0.95	101.2008	0.3817	0.0000	0.0000;
	264	1	41.719	37	0	0	1	1.04154196	-4.22169539	110	1	1.12	0.95	90.3770	0.1907	0.0000	0.0000;
	265	1	43.66	40	0	0	1	1.04897821	-7.66346606	110	1	1.12	0.95	91.3202	0.4168	0.0000	0.0000;
	266	1	2.911	1	0	0	1	1.04683899	-21.3975014	110	1	1.12	0.95	97.8292	0.5128	0.0000	0.0000;
	267	1	8.247	0.7	0	0	1	1.05331558	-22.4041106	110	1	1.12	0.95	98.4136	0.0620	0.0000	0.0000;
	268	1	5.336	1.1	0	0	1	1.05794593	-21.8227863	110	1	1.12	0.95	97.6082	0.7979	0.0000	0.0000;
	269	1	7.761	1.5	0	0	1	1.09442763	-20.1891838	110	1	1.12	0.95	96.2427	-2.3531	0.0000	0.0000;
	270	1	5.821	1.5	0	0	1	1.04943616	-29.5601232	110	1	1.12	0.95	105.9202	0.1894	0.0000	0.0000;
	271	1	10.672	2.75	0	0	1	1.04613011	-20.1556822	110	1	1.12	0.95	96.9231	0.5788	0.0000	0.0000;
	272	1	0.098	0	0	0	1	1.04499763	-21.9020462	110	1	1.12	0.95	98.9419	0.2870	0.0000	0.0000;
	273	1	0.097	0.03	0	0	1	1.0655446	-19.1060448	110	1	1.12	0.95	95.6030	0.0721	0.0000	0.0000;
	274	1	0.097	0.03	0	0	1	1.06033681	-19.7684765	110	1	1.12	0.95	96.2892	0.2756	0.0000	0.0000;
	275	1	7.451	3.94	0	0	1	1.07170543	-11.1526025	110	1	1.12	0.95	92.5317	0.2934	0.0000	0.0000;
	276	1	4.967	2.63	0	0	1	1.07076251	-11.6061777	110	1	1.12	0.95	92.6084	0.0659	0.0000	0.0000;
	277	1	5.239	1.2	0	0	1	1.06885643	-12.3682241	110	1	1.12	0.95	93.7387	-0.4277	0.0000	0.0000;
	278	1	1.94	0	0	0	1	1.0965884	-20.1947496	110	1	1.12	0.95	95.6635	-1.6148	0.0000	0.0000;
	279	1	5.336	0	0	0	1	1.08261325	-21.7063239	110	1	1.12	0.95	97.3622	-0.5540	0.0000	0.0000;
	280	1	10.672	3	0	0	1	1.06301538	-19.7757201	110	1	1.12	0.95	96.3241	0.2345	0.0000	0.0000;
	281	1	7.761	1	0	0	1	1.04707277	-21.0477116	110	1	1.12	0.95	97.9373	0.5702	0.0000	0.0000;
	282	1	22.314	21	0	0	1	1.03826281	-7.24627805	110	1	1.12	0.95	91.3253	0.5187	0.0000	0.0000;
	283	1	15.524	13	0	0	1	1.03805569	-7.22235984	110	1	1.12	0.95	91.3228	0.5189	0.0000	0.0000;
	284	1	7.762	3.17	0	0	1	1.07233363	-11.0246584	110	1	1.12	0.95	92.4687	0.3590	0.0000	0.0000;
	285	1	10.672	1.6	0	0	1	1.06640891	-11.9448412	110	1	1.12	0.95	93.2850	0.3352	0.0000	0.0000;
	286	1	5.821	0.5	0	0	1	1.07780423	-24.6754047	110	1	1.12	0.95	99.1341	-0.2848	0.0000	0.0000;
	287	1	3.396	0	0	0	1	1.0974539	-21.1446742	110	1	1.12	0.95	96.0519	-1.6062	0.0000	0.0000;
	288	1	2.425	0.5	0	0	1	1.04336292	-21.8535037	110	1	1.12	0.95	98.5944	0.5207	0.0000	0.0000;
	289	1	2.425	0.6	0	0	1	1.06295383	-14.9870953	110	1	1.12	0.95	95.5458	0.2128	0.0000	0.0000;
	290	1	16.008	6	0	0	1	1.04797503	-20.9334116	110	1	1.12	0.95	97.8159	0.5569	0.0000	0.0000;
	291	1	9.702	1	0	0	1	1.06526714	-19.5675259	110	1	1.12	0.95	96.0463	0.0000	0.0000	0.0000;
	292	1	5.239	1.96	0	0	1	1.07417184	-10.8321608	110	1	1.12	0.95	92.2936	0.3814	0.0000	0.0000;
	293	1	1.94	1.3	0	0	1	1.06659364	-19.9914129	110	1	1.12	0.95	97.0862	0.0513	0.0000	0.0000;
	294	1	4.657	0.8	0	0	1	1.05031601	-22.7537677	110	1	1.12	0.95	98.8780	0.0223	0.0000	0.0000;
	295	1	6.209	0.9	0	0	1	1.0624547	-14.733377	110	1	1.12	0.95	95.3463	0.2188	0.0000	0.0000;
	296	1	3.881	2	0	0	1	1.07439596	-11.5631981	110	1	1.12	0.95	92.8062	-0.7699	0.0000	0.0000;
	297	1	7.276	2.97	0	0	1	1.05855679	-12.3898703	110	1	1.12	0.95	93.7143	0.2329	0.0000	0.0000;
	298	1	9.8	3.67	0	0	1	1.06278835	-12.4466684	110	1	1.12	0.95	93.7269	0.1723	0.0000	0.0000;
	299	1	9.702	3.5	0	0	1	1.09336951	-20.3637939	110	1	1.12	0.95	95.9727	-1.9513	0.0000	0.0000;
	300	1	0	0	0	0	1	1.07101809	-11.6103364	110	1	1.12	0.95	92.6084	0.0524	0.0000	0.0000;
	301	1	3.881	0.5	0	0	1	1.02281983	-8.16097964	110	1	1.12	0.95	93.2805	0.4122	0.0000	0.0000;
	302	1	8.15	3.33	0	0	1	1.07420277	-10.8273554	110	1	1.12	0.95	92.2890	0.3813	0.0000	0.0000;
	303	1	9.605	3.59	0	0	1	1.06636409	-11.8633008	110	1	1.12	0.95	93.0323	0.0962	0.0000	0.0000;
	304	1	13.291	4.97	0	0	1	1.07213261	-11.0172013	110	1	1.12	0.95	92.4418	0.3139	0.0000	0.0000;
	305	1	14.844	5.55	0	0	1	1.05835576	-12.3849867	110	1	1.12	0.95	93.7212	0.2042	0.0000	0.0000;
	306	2	78.068	52.19	0	0	1	1.05332	-12.1998876	110	1	1.12	0.95	93.5638	0.3806	0.0000	0.0000;
	307	1	52.074	20.97	0	0	1	1.05940289	-12.2973009	110	1	1.12	0.95	93.6380	0.1551	0.0000	0.0000;
	308	2	18.922	9.47	0	0	1	1.067	-11.8015115	110	1	1.12	0.95	93.0280	-0.0000	0.0000	0.0000;
	309	1	0	0	0	0	1	1.05848867	-12.3881377	110	1	1.12	0.95	93.7168	0.2218	0.0000	0.0000;
	310	2	36.737	19.74	0	0	1	1.07303	-10.9731168	110	1	1.12	0.95	92.3616	0.2446	0.0000	0.0000;
	311	1	29.633	16.42	0	0	1	1.06526823	-11.6006429	110	1	1.12	0.95	92.6966	-0.0000	0.0000	0.0000;
	312	1	8.053	0.8	0	0	1	1.06392446	-13.8078837	110	1	1.12	0.95	94.6346	0.1839	0.0000	0.0000;
	313	1	1.94	0	0	0	1	1.09860464	-19.9645616	110	1	1.12	0.95	95.6571	-2.3571	0.0000	0.0000;
	314	1	0.97	0.501	0	0	1	1.04238966	-21.7459334	110	1	1.12	0.95	98.4975	0.5345	0.0000	0.0000;
	315	1	5.578	0.75	0	0	1	1.0414473	-22.1715327	110	1	1.12	0.95	98.8890	0.5320	0.0000	0.0000;
	316	1	8.489	1.25	0	0	1	1.04141304	-22.1606568	110	1	1.12	0.95	98.8863	0.5324	0.0000	0.0000;
	317	1	12.419	3	0	0	1	1.05103765	-19.9842679	110	1	1.12	0.95	96.6204	0.4890	0.0000	0.0000;
	318	1	6.694	2.5	0	0	1	1.07258791	-10.976432	110	1	1.12	0.95	92.4086	0.3403	0.0000	0.0000;
	319	1	12.03	4.5	0	0	1	1.07041462	-11.1710006	110	1	1.12	0.95	92.5697	0.3046	0.0000	0.0000;
	320	1	10.672	2.5	0	0	1	1.08092089	-22.0361713	110	1	1.12	0.95	97.7216	-0.4276	0.0000	0.0000;
	321	1	11.642	4.75	0	0	1	1.06493472	-11.6396516	110	1	1.12	0.95	92.7345	0.0297	0.0000	0.0000;
	322	1	11.613	4.74	0	0	1	1.05205035	-12.2845934	110	1	1.12	0.95	93.6554	0.4174	0.0000	0.0000;
	323	1	4.977	2.03	0	0	1	1.05422997	-12.2846898	110	1	1.12	0.95	93.6381	0.3579	0.0000	0.0000;
	324	1	9.702	2.5	0	0	1	1.08174811	-21.7791896	110	1	1.12	0.95	97.4484	-0.4707	0.0000	0.0000;
	325	1	14.553	3	0	0	1	1.04253425	-22.8776056	110	1	1.12	0.95	99.5146	0.4418	0.0000	0.0000;
	326	1	8.926	3.34	0	0	1	1.05427766	-12.2870372	110	1	1.12	0.95	93.6399	0.3570	0.0000	0.0000;
	327	1	5.336	1	0	0	1	1.06827289	-11.9936616	110	1	1.12	0.95	93.1252	-0.1838	0.0000	0.0000;
	328	1	2.911	0.6	0	0	1	1.06847302	-12.0183918	110	1	1.12	0.95	93.1571	-0.2161	0.0000	0.0000;
	329	1	38.225	14.3	0	0	1	1.06820574	-11.3620945	110	1	1.12	0.95	92.7662	0.3788	0.0000	0.0000;
	330	1	11.643	1	0	0	1	1.08436308	-17.5918937	110	1	1.12	0.95	95.3538	-0.3071	0.0000	0.0000;
	331	1	0	0	0	0	1	1.05677274	-12.9845287	110	1	1.12	0.95	94.3129	0.2796	0.0000	0.0000;
	332	1	6.791	2	0	0	1	1.04139699	-22.9499174	110	1	1.12	0.95	99.6450	0.4780	0.0000	0.0000;