function mpc = case3375wp_resqlim
%CASE3375WP_RESQLIM

%% MATPOWER Case Format : Version 2
mpc.version = '2';

%%-----  Power Flow Data  -----%%
%% system MVA base
mpc.baseMVA = 100;

%% bus data
%	bus_i	type	Pd	Qd	Gs	Bs	area	Vm	Va	baseKV	zone	Vmax	Vmin
mpc.bus = [
	10000	1	0	0	0	0	0	1.04686467	-10.4503073	400	0	1.05	0.95;
	10001	1	0	0	0	0	0	1.04831204	-14.5242166	400	0	1.05	0.95;
	10002	1	0	0	0	0	0	1.07249559	-16.444835	220	0	1.11	0.95;
	10003	1	0	0	0	0	0	1.04519541	-17.4268329	400	0	1.05	0.95;
	10004	1	0	0	0	0	0	1.04393896	-13.5548676	400	0	1.05	0.95;
	10005	1	0	0	0	0	0	1.04431584	-15.9887306	400	0	1.05	0.95;
	10006	1	0	0	0	0	0	1.04069793	-9.33129677	400	0	1.05	0.95;
	10007	1	0	0	0	0	0	1.07321163	-15.3788324	220	0	1.11	0.95;
	10008	1	0	0	0	0	0	1.07070554	-17.5676125	220	0	1.11	0.95;
	10009	1	0	0	0	0	0	1.0443228	-16.772595	400	0	1.05	0.95;
	10010	1	0	0	0	0	0	1.04909529	-11.5761766	400	0	1.05	0.95;
	10011	1	0	0	0	0	0	1.0446792	-18.1067653	400	0	1.05	0.95;
	10012	1	0	0	0	0	0	1.0446792	-18.1067653	400	0	1.05	0.95;
	10013	1	0	0	0	0	0	1.04557967	-11.7819739	400	0	1.05	0.95;
	10014	1	0	0	0	0	0	1.04578165	-11.8134731	400	0	1.05	0.95;
	10015	1	0	0	0	0	0	1.04471832	-17.7113422	400	0	1.05	0.95;
	10016	1	0	0	0	0	0	1.04576648	-11.7009935	400	0	1.05	0.95;
	10017	1	0	0	0	0	0	1.04570156	-11.7050589	400	0	1.05	0.95;
	10018	1	0	0	0	0	0	1.04568296	-11.6978119	400	0	1.05	0.95;
	10019	1	0	0	0	0	0	1.045787	-11.8135047	400	0	1.05	0.95;
	10020	1	0	0	0	0	0	1.04995336	-13.5538129	400	0	1.05	0.95;
	10021	1	0	0	0	0	0	1.07628622	-16.1078713	220	0	1.11	0.95;
	10022	1	0	0	0	0	0	1.07480395	-16.520328	220	0	1.11	0.95;
	10023	1	0	0	0	0	0	1.04573425	-11.2071765	400	0	1.05	0.95;
	10024	1	0	0	0	0	0	1.04548215	-11.3066301	400	0	1.05	0.95;
	10025	1	0	0	0	0	0	1.04564237	-11.2537635	400	0	1.05	0.95;
	10026	1	0	0	0	0	0	1.04126659	-7.45026843	400	0	1.05	0.95;
	10027	1	0	0	0	0	0	1.04166659	-7.17738488	400	0	1.05	0.95;
	10028	1	0	0	0	0	0	1.04177789	-6.97992756	400	0	1.05	0.95;
	10029	1	0	0	0	0	0	1.04910013	-11.028346	400	0	1.05	0.95;
	10030	1	0	0	0	0	0	1.04909081	-11.0231493	400	0	1.05	0.95;
	10031	1	0	0	0	0	0	1.08680537	-11.0533224	220	0	1.11	0.95;
	10032	1	0	0	0	0	0	1.0413142	-7.46577494	400	0	1.05	0.95;
	10033	1	0	0	0	0	0	1.04130079	-7.46567407	400	0	1.05	0.95;
	10034	1	0	0	0	0	0	1.04252919	-13.6830089	400	0	1.05	0.95;
	10035	1	0	0	0	0	0	1.07250126	-11.8197277	220	0	1.11	0.95;
	10036	1	0	0	0	0	0	1.07256322	-11.8274268	220	0	1.11	0.95;
	10037	1	0	0	0	0	0	1.04129814	-7.56374141	400	0	1.05	0.95;
	10038	1	0	0	0	0	0	1.04134377	-7.57185063	400	0	1.05	0.95;
	10039	1	0	0	0	0	0	1.04177125	-7.60952694	400	0	1.05	0.95;
	10040	1	0	0	0	0	0	1.04506167	-12.6568825	400	0	1.05	0.95;
	10041	1	0	0	0	0	0	1.04915527	-11.1619133	400	0	1.05	0.95;
	10042	1	0	0	0	0	0	1.04489219	-18.3736694	400	0	1.05	0.95;
	10043	1	0	0	0	0	0	1.06595556	-13.9079068	220	0	1.11	0.95;
	10044	1	0	0	0	0	0	1.07304594	-13.072156	220	0	1.11	0.95;
	10045	1	0	0	0	0	0	1.0673808	-18.4289669	220	0	1.11	0.95;
	10046	1	0	0	0	0	0	1.07476348	-16.5198368	220	0	1.11	0.95;
	10047	1	0	0	0	0	0	1.04345333	-19.252155	400	0	1.05	0.95;
	10048	1	0	0	0	0	0	1.04593165	-10.9452297	400	0	1.05	0.95;
	10049	1	0	0	0	0	0	1.04881094	-11.4469976	400	0	1.05	0.95;
	10050	1	0	0	0	0	0	1.04915527	-11.1619133	400	0	1.05	0.95;
	10051	1	0	0	0	0	0	1.06434644	-18.1784829	220	0	1.11	0.95;
	10052	1	0	0	0	0	0	1.04278668	-16.0154038	400	0	1.05	0.95;
	10053	1	0	0	0	0	0	1.08849344	-10.4946499	220	0	1.11	0.95;
	10054	1	0	0	0	0	0	1.08849344	-10.4946499	220	0	1.11	0.95;
	10055	1	0	0	0	0	0	1.0802234	-14.4143245	220	0	1.11	0.95;
	10056	1	0	0	0	0	0	1.04167351	-9.58585227	400	0	1.05	0.95;
	10057	1	0	0	0	0	0	1.03958119	-8.55841117	400	0	1.05	0.95;
	10058	1	0	0	0	0	0	1.05990736	-16.368429	220	0	1.11	0.95;
	10059	1	0	0	0	0	0	1.0500618	-15.4466409	400	0	1.05	0.95;
	10060	1	0	0	0	0	0	1.04132096	-7.56779611	400	0	1.05	0.95;
	10061	1	0	0	0	0	0	1.04167351	-9.58585227	400	0	1.05	0.95;
	10062	1	0	0	0	0	0	1.0429548	-15.2417831	400	0	1.05	0.95;
	10063	1	0	0	0	0	0	1.04577856	-11.8134607	400	0	1.05	0.95;
	10064	1	0	0	0	0	0	1.06573623	-15.8937354	220	0	1.11	0.95;
	10065	1	0	0	0	0	0	1.04672215	-13.1326325	400	0	1.05	0.95;
	10066	1	0	0	0	0	0	1.04877726	-11.8437208	400	0	1.05	0.95;
	10067	1	0	0	0	0	0	1.06756125	-14.9981849	220	0	1.11	0.95;
	10068	1	0	0	0	0	0	1.04901697	-12.7353174	400	0	1.05	0.95;
	10069	1	0	0	0	0	0	1.06641244	-18.753813	220	0	1.11	0.95;
	10070	1	0	0	0	0	0	1.04463345	-18.1065159	400	0	1.05	0.95;
	10071	2	16	8	0	0	0	1.07617	-14.7594223	220	0	1.11	0.95;
	10072	1	0	0	0	0	0	1.08594941	-11.2289742	220	0	1.11	0.95;
	10073	1	0	0	0	0	1	1.07467423	-12.8181254	220	0	1.11	0.95;
	10074	1	0	0	0	0	0	1.07381742	-12.7939762	220	0	1.11	0.95;
	10075	1	0	0	0	0	0	1.07253658	-13.62627	220	0	1.11	0.95;
	10076	1	0	0	0	0	0	1.04547092	-11.3065677	400	0	1.05	0.95;
	10077	1	0	0	0	0	0	1.04547092	-11.3065677	400	0	1.05	0.95;
	10078	1	305.5	-14	0	0	0	1.03443612	-7.6112979	400	0	1.05	0.95;
	10079	2	-1529.6	4542.9	0	0	0	1.01319	0.630801925	400	0	1.05	0.95;
	10080	2	-159.1	-181	0	0	0	1.02855	-4.07271917	400	0	1.05	0.95;
	10081	1	-1078.3	-374.1	0	0	0	1.03449513	-0.189877861	400	0	1.05	0.95;
	10082	1	943.2	310.2	0	0	0	1.00366159	-3.76639263	400	0	1.05	0.95;
	10083	1	97	26	0	0	0	1.04141342	-4.5082664	400	0	1.05	0.95;
	10084	1	0.6	160	0	0	0	1.04228039	-4.31276777	400	0	1.05	0.95;
	10085	1	161.6	183.6	0	0	0	1.04124315	-4.46280227	400	0	1.05	0.95;
	10086	1	288.6	221.6	0	0	0	1.04123175	-4.46545356	400	0	1.05	0.95;
	10087	1	0	0	0	0	0	1.04329387	-4.19203098	400	0	1.05	0.95;
	10088	1	0	0	0	0	0	1.08924066	-4.62354086	220	0	1.11	0.95;
	10089	1	0	0	0	0	0	1.0869989	-4.74826335	220	0	1.11	0.95;
	10090	2	274.4	279.6	0	0	0	1.04139	-4.51229572	400	0	1.05	0.95;
	10091	1	94.2	111.8	0	0	0	1.04083012	-4.56813171	400	0	1.05	0.95;
	10092	1	0	0	0	0	0	1.08536631	-4.83742546	220	0	1.11	0.95;
	10093	1	0	0	0	0	0	1.08802199	-4.69266739	220	0	1.11	0.95;
	10094	2	0	0	0	0	0	1.03526	-3.81880731	400	0	1.05	0.95;
	10095	2	4.4	-2590.1	0	0	0	1.02969	-5.19985458	400	0	1.05	0.95;
	10096	1	488	79.1	0	0	0	1.02127166	-5.41322692	400	0	1.05	0.95;
	10097	1	601	147.9	0	0	0	1.02468224	-5.32102925	400	0	1.05	0.95;
	10098	1	527	265.1	0	0	0	1.02591623	-4.60362953	400	0	1.05	0.95;
	10099	1	0	0	0	0	0	1.00481215	-1.73961206	400	0	1.05	0.95;
	10100	2	0	0	0	0	0	1.04073	-0.189369862	400	0	1.05	0.95;
	10101	1	0	0	0	0	0	1.04148082	-16.2157246	220	0	1.11	0.95;
	10102	1	120	25	0	0	0	1.0628311	-9.02265793	220	0	1.11	0.95;
	10103	1	0	0	0	0	0	1.03973346	-2.56651965	400	0	1.05	0.95;
	10104	2	200.2	48.7	0	0	0	1.04409	-1.45090195	400	0	1.05	0.95;
	10105	1	0	0	0	0	0	1.06456069	-7.16306481	220	0	1.11	0.95;
	10106	1	0	0	0	0	0	1.03439118	-3.86248255	400	0	1.05	0.95;
	10107	1	0	0	0	0	0	1.04250222	-2.19397994	400	0	1.05	0.95;
	10108	1	0	0	0	0	0	1.04309316	-1.87768712	400	0	1.05	0.95;
	10109	1	0	0	0	0	0	1.04246211	-2.11743115	400	0	1.05	0.95;
	10110	1	0	0	0	0	0	1.04307783	-1.796497	400	0	1.05	0.95;
	10111	1	0	0	0	0	0	1.02626479	-1.09730195	400	0	1.05	0.95;
	10112	1	0	0	0	0	0	1.10808786	-4.33065466	220	0	1.11	0.95;
	10113	1	0	0	0	0	0	1.01803983	-1.81445059	400	0	1.05	0.95;
	10114	1	0	0	0	0	0	1.09057751	-6.28023033	220	0	1.11	0.95;
	10115	2	0	0	0	0	0	1.00234	-1.51878094	400	0	1.05	0.95;
	10116	2	0	0	0	0	0	1.00234	-1.51878094	400	0	1.05	0.95;
	10117	1	0	0	0	0	0	1.0321485	-4.51424893	400	0	1.05	0.95;
	10118	2	0	0	0	0	0	1.04097	0.179384528	400	0	1.05	0.95;
	10119	1	0	0	0	0	0	1.01217367	-2.60256347	400	0	1.05	0.95;
	10120	1	0	0	0	0	0	1.0397921	-3.05723582	400	0	1.05	0.95;
	10121	1	80	20	0	0	0	1.05964069	-8.78945502	220	0	1.11	0.95;
	10122	1	0	0	0	0	0	1.05016455	-9.12172113	220	0	1.11	0.95;
	10123	1	0	0	0	0	0	1.04890453	-3.22411846	400	0	1.05	0.95;
	10124	1	0	0	0	0	0	1.05013563	0.169728846	400	0	1.05	0.95;
	10125	1	0	0	0	0	0	1.01317037	-3.63631871	400	0	1.05	0.95;
	10126	2	0	0	0	0	0	1.00802	-2.80430673	400	0	1.05	0.95;
	10127	1	0	0	0	0	0	1.09610121	-6.54066441	220	0	1.11	0.95;
	10128	1	0	0	0	0	0	1.09610121	-6.54066441	220	0	1.11	0.95;
	10129	2	0.2	100	0	0	0	1.04538	1.12957352	400	0	1.05	0.95;
	10130	1	0	0	0	0	0	1.04546344	1.10310114	400	0	1.05	0.95;
	10131	1	0	0	0	0	0	1.00965065	-3.30673726	400	0	1.05	0.95;
	10132	2	0	0	0	0	0	1.02908	-3.91260398	400	0	1.05	0.95;
	10133	1	0	0	0	0	0	1.05049284	-3.12007455	400	0	1.05	0.95;
	10134	1	0	0	0	0	0	1.047631	-3.72817296	400	0	1.05	0.95;
	10135	1	0	0	0	0	0	1.051034	-8.95147986	220	0	1.11	0.95;
	10136	1	0	0	0	0	0	1.07155386	-6.84300209	220	0	1.11	0.95;
	10137	1	0	0	0	0	0	1.04003435	-18.748571	220	0	1.11	0.95;
	10138	1	0	0	0	0	0	1.03398471	-4.30880678	400	0	1.05	0.95;
	10139	2	0	0	0	0	0	1.03742	-1.02658523	400	0	1.05	0.95;
	10140	2	0	0	0	0	0	1.03856	-0.543396959	400	0	1.05	0.95;
	10141	2	0	0	0	0	0	1.01264	-0.917327337	400	0	1.05	0.95;
	10142	1	0	0	0	0	0	1.03741206	-4.01829232	400	0	1.05	0.95;
	10143	1	0	0	0	0	0	1.03591936	-2.31645751	400	0	1.05	0.95;
	10144	1	0	0	0	0	0	1.03593854	-2.3153596	400	0	1.05	0.95;
	10145	1	0	0	0	0	0	1.01023354	-3.0639108	400	0	1.05	0.95;
	10146	2	0	0	0	0	0	1.04296	-2.83976935	220	0	1.11	0.95;
	10147	1	0	0	0	0	0	1.0312185	-4.73348953	400	0	1.05	0.95;
	10148	1	0	0	0	0	0	1.0734864	-6.50975013	220	0	1.11	0.95;
	10149	1	0	0	0	0	0	1.0734673	-6.51262447	220	0	1.11	0.95;
	10150	2	0	0	0	0	0	1.04015	-2.44042645	400	0	1.05	0.95;
	10151	1	0	0	0	0	0	1.04142007	-2.50016221	400	0	1.05	0.95;
	10152	1	0	0	0	0	0	1.04661144	-0.378242845	400	0	1.05	0.95;
	10153	1	0	0	0	0	0	1.03097236	-2.14486694	400	0	1.05	0.95;
	10154	1	80	20	0	0	0	1.03598294	-3.57745103	220	0	1.11	0.95;
	10155	1	0	0	0	0	0	1.08189088	-6.69016002	220	0	1.11	0.95;
	10156	1	0	0	0	0	0	1.03072364	-4.49174609	400	0	1.05	0.95;
	10157	1	0	0	0	0	0	1.08698056	-4.67009326	220	0	1.11	0.95;
	10158	1	0	0	0	0	0	1.01374816	-2.26173687	400	0	1.05	0.95;
	10159	1	0	0	0	0	0	1.10999791	-4.19266253	220	0	1.11	0.95;
	10160	1	0	0	0	0	0	1.06420717	-19.8868189	220	0	1.11	0.95;
	10161	1	0	0	0	0	0	1.02085747	-4.02050841	400	0	1.05	0.95;
	10162	1	0	0	0	0	0	1.05921346	-8.2426494	220	0	1.11	0.95;
	10163	1	0	0	0	0	0	1.09451572	-6.75315613	220	0	1.11	0.95;
	10164	1	0	0	0	0	0	1.02895295	-4.11633545	400	0	1.05	0.95;
	10165	1	0	0	0	0	0	1.03323699	-5.07560042	400	0	1.05	0.95;
	10166	1	0	0	0	0	0	1.07014377	-8.05979349	220	0	1.11	0.95;
	10167	1	0	0	0	0	0	1.02903402	-4.40472478	400	0	1.05	0.95;
	10168	1	0	0	0	0	0	1.02903402	-4.40472478	400	0	1.05	0.95;
	10169	1	0	0	0	0	0	1.02937845	-4.35820744	400	0	1.05	0.95;
	10170	1	0	0	0	0	0	1.02937845	-4.35820744	400	0	1.05	0.95;
	10171	2	-104.8	-159	0	0	0	1.02955	-3.81421264	400	0	1.05	0.95;
	10172	1	247.4	-57.5	0	0	0	1.02971531	-5.20438069	400	0	1.05	0.95;
	10173	1	247.4	-57.5	0	0	0	1.02971531	-5.20438069	400	0	1.05	0.95;
	10174	1	371.5	403.5	0	0	0	1.02061378	-5.43474285	400	0	1.05	0.95;
	10176	2	-249.9	162.6	0	0	0	1.02979	-3.97255256	400	0	1.05	0.95;
	10177	2	-249.9	162.6	0	0	0	1.02979	-3.97255256	400	0	1.05	0.95;
	10178	1	52.5	207.2	0	0	0	1.02728418	-10.1097932	400	0	1.05	0.95;
	10179	1	379.5	54.6	0	0	0	1.03890488	-12.857948	400	0	1.05	0.95;
	10180	1	73.6	-95.6	0	0	0	1.08760288	-16.3624405	220	0	1.11	0.95;
	10181	1	73.6	-95.6	0	0	0	1.08760288	-16.3624405	220	0	1.11	0.95;
	10182	1	107.2	-44.4	0	0	0	1.04995142	-12.2950225	400	0	1.05	0.95;
	10183	1	86	8	0	0	0	1.04860403	-10.1361714	400	0	1.05	0.95;
	10184	1	70	49	0	0	0	1.05072689	-14.0346875	220	0	1.11	0.95;
	10185	1	0	0	0	0	0	1.04939338	-12.401379	400	0	1.05	0.95;
	10186	2	0	0	0	0	0	1.08932	-7.27344365	220	0	1.11	0.95;
	10187	2	0	0	0	0	0	1.0894	-7.24052932	220	0	1.11	0.95;
	10188	2	0	0	0	0	0	1.04594	-8.80221548	400	0	1.05	0.95;
	10189	2	10.2	0	0	0	0	1.04556	-10.0273878	400	0	1.05	0.95;
	10190	2	0	0	0	0	0	1.04288	-9.64953056	400	0	1.05	0.95;
	10191	2	0	0	0	0	0	1.04288	-9.64410268	400	0	1.05	0.95;
	10192	2	0	0	0	0	0	1.04073	-10.8246809	220	0	1.11	0.95;
	10193	1	0	0	0	0	0	1.0407258	-10.826992	220	0	1.11	0.95;
	10194	2	0	0	0	0	0	1.03584	-9.14728948	400	0	1.05	0.95;
	10195	1	0	0	0	0	0	1.03661314	-9.18630007	400	0	1.05	0.95;
	10196	2	0	0	0	0	0	1.04091	-12.3377314	400	0	1.05	0.95;
	10197	1	295	51.9	0	0	0	1.04398578	-11.9321008	400	0	1.05	0.95;
	10198	1	0	0	0	0	0	1.04664555	-10.5294522	400	0	1.05	0.95;
	10199	1	308	40	0	0	0	1.08152425	-9.76607222	220	0	1.11	0.95;
	10200	1	0	0	0	0	0	1.08153801	-9.74936192	220	0	1.11	0.95;
	10201	1	0	0	0	0	0	1.02696305	-10.5833532	400	0	1.05	0.95;
	10202	1	103	28	0	0	0	1.03003666	-12.3572207	220	0	1.11	0.95;
	10203	1	0	0	0	0	0	1.03003666	-12.3572207	220	0	1.11	0.95;
	10204	1	170	33	0	0	0	1.04079779	-10.1250493	400	0	1.05	0.95;
	10205	1	154	6	0	0	0	1.04862672	-12.3972346	400	0	1.05	0.95;
	10206	1	150	15	0	0	0	1.02861212	-17.4999378	220	0	1.11	0.95;
	10207	1	113	15	0	0	0	1.04390398	-10.9820198	400	0	1.05	0.95;
	10208	1	65	11	0	0	0	1.04565813	-11.8664551	400	0	1.05	0.95;
	10209	1	60	10	0	0	0	1.05634563	-14.7276954	220	0	1.11	0.95;
	10210	1	204	16.9	0	0	0	1.04548224	-11.6902984	400	0	1.05	0.95;
	10211	1	142	10.9	0	0	0	1.06705739	-14.0825173	220	0	1.11	0.95;
	10212	1	83	19	0	0	0	1.041401	-15.463252	220	0	1.11	0.95;
	10213	1	189	35	0	0	0	1.03546778	-12.0490764	400	0	1.05	0.95;
	10214	1	17	6	0	0	0	1.04833953	-12.3258008	400	0	1.05	0.95;
	10215	1	0	0	0	0	0	1.04907935	-12.2015112	400	0	1.05	0.95;
	10216	1	2	-6	0	0	0	1.04549929	-14.7997463	220	0	1.11	0.95;
	10217	1	88	-4	0	0	0	1.04999684	-11.9341492	400	0	1.05	0.95;
	10218	1	0	0	0	0	0	1.04266504	-9.89089385	400	0	1.05	0.95;
	10219	1	0	0	0	0	0	1.04266865	-9.88697304	400	0	1.05	0.95;
	10220	1	0	0	0	0	0	1.0365977	-9.18622086	400	0	1.05	0.95;
	10221	1	0	0	0	0	0	1.03885953	-8.36755355	400	0	1.05	0.95;
	10222	1	50	20	0	0	0	1.0321055	-11.981314	220	0	1.11	0.95;
	10223	2	-338.1	155.6	0	0	0	1.04073	-7.5490129	400	0	1.05	0.95;
	10225	2	195.7	126.6	0	0	0	1.06248	-13.5617817	110	0	1.12	0.95;
	10226	2	141.9	93.1	0	0	0	1.06441	-10.437263	110	0	1.12	0.95;
	10227	2	234.5	57.5	0	0	0	1.10423	-16.9211766	110	0	1.12	0.95;
	10228	2	388.2	98.2	0	0	0	1.06247	-26.4271399	110	0	1.12	0.95;
	10229	2	84.7	29.1	0	0	0	1.06902	-17.9012158	110	0	1.12	0.95;
	10230	2	0	0	0	0	0	1.07323	-12.0748866	110	0	1.12	0.95;
	10231	1	194.4	43.4	0	0	0	1.01832394	-23.4931157	110	0	1.12	0.95;
	10232	2	195.7	43.3	0	0	0	1.01987	-23.3265897	110	0	1.12	0.95;
	10233	2	513.7	92.5	0	0	0	1.04665	-18.681426	110	0	1.12	0.95;
	10234	2	455.4	108.8	0	0	0	1.09129	-28.4435529	110	0	1.12	0.95;
	10235	2	61.8	19.6	0	0	0	1.08091	-18.1814883	110	0	1.12	0.95;
	10236	2	260.8	80.8	0	0	0	1.07896	-10.7606135	110	0	1.12	0.95;
	10237	2	199.4	65.6	0	0	0	1.08023	-18.2073897	110	0	1.12	0.95;
	10238	2	395	96.4	0	0	0	1.00809	-23.5398576	110	0	1.12	0.95;
	10239	2	344.4	71	0	0	0	1.06246	-14.603218	110	0	1.12	0.95;
	10240	2	0	0	0	0	0	1.0666	-9.75906546	110	0	1.12	0.95;
	10241	1	0	0	0	0	0	1.07018868	-10.6631222	110	0	1.12	0.95;
	10242	1	0	0	0	0	0	1.07381766	-17.2315437	110	0	1.12	0.95;
	10243	1	0	0	0	0	0	1.06265371	-13.5624787	110	0	1.12	0.95;
	10244	1	0	0	0	0	0	1.0662311	-8.80202236	110	0	1.12	0.95;
	10245	1	185.4	59.7	0	0	0	1.07935592	-18.2223323	110	0	1.12	0.95;
	10246	2	4	2	0	0	0	1.03917	-8.0862143	14	0	1.12	0.95;
	10247	2	14	10	0	0	0	1.12	-8.11999621	14	0	1.12	0.95;
	10248	2	14	10	0	0	0	1.12	-5.67169728	14	0	1.12	0.95;
	10249	2	5	3	0	0	0	1.00179	-15.2303997	23	0	1.12	0.95;
	10250	2	28	17	0	0	0	1.0404	-6.74282777	16	0	1.12	0.95;
	10251	2	28	17	0	0	0	1.03995	-6.74398444	16	0	1.12	0.95;
	10252	2	28	17	0	0	0	1.03994	-6.73661156	16	0	1.12	0.95;
	10253	2	26.7	5.9	0	0	0	1.01534	-15.7547207	15	0	1.12	0.95;
	10254	2	23	10	0	0	0	1.04999	-9.47074372	20	0	1.12	0.95;
	10255	2	4	2	0	0	0	1.03994	-12.6426736	16	0	1.12	0.95;
	10256	2	30	10	0	0	0	1.11998	-8.15463734	16	0	1.12	0.95;
	10257	2	15	5	0	0	0	1.11817	-9.72554676	16	0	1.12	0.95;
	10258	2	20	8	0	0	0	1.10518	-4.6454567	16	0	1.12	0.95;
	10259	2	30	14	0	0	0	0.98182	-3.52857481	17	0	1.12	0.95;
	10260	2	45	21	0	0	0	1.10941	-4.12155973	17	0	1.12	0.95;
	10261	2	80	40	0	0	0	0.99592	-7.94083681	25	0	1.12	0.95;
	10262	2	80	40	0	0	0	0.99592	-7.93562026	25	0	1.12	0.95;
	10263	2	10	4	0	0	0	1.09219	-8.2624822	14	0	1.12	0.95;
	10264	2	30	10	0	0	0	1.00552	-3.83548344	17	0	1.12	0.95;
	10265	2	30	10	0	0	0	1.10573	-4.07716561	16	0	1.12	0.95;
	10266	2	298.7	37.9	0	0	0	1.04403	-16.916466	110	0	1.12	0.95;
	10267	2	198.4	53.4	0	0	0	1.08131	-15.3554986	110	0	1.12	0.95;
	10268	2	114.8	20.4	0	0	0	1.06395	-13.3131907	110	0	1.12	0.95;
	10269	2	275.2	110.6	0	0	0	1.07428	-17.0114535	110	0	1.12	0.95;
	10270	2	61.8	23.7	0	0	0	1.05973	-12.9651457	110	0	1.12	0.95;
	10271	2	385.3	67	0	0	0	1.06494	-21.3668084	110	0	1.12	0.95;
	10272	2	104.1	17.5	0	0	0	1.072	-18.6257933	110	0	1.12	0.95;
	10273	2	541	91.4	0	0	0	1.02431	-23.3060156	110	0	1.12	0.95;
	10274	2	256.3	100.7	0	0	0	1.06504	-13.9214033	110	0	1.12	0.95;
	10275	2	0	0	0	0	0	1.06182	-12.0610825	110	0	1.12	0.95;
	10276	2	164.4	34	0	0	0	1.06034	-18.9170016	110	0	1.12	0.95;
	10277	2	616.8	133.2	0	0	0	1.06264	-19.9344995	110	0	1.12	0.95;
	10278	2	15	10	0	0	0	1.11356	-7.17481973	12	0	1.12	0.95;
	10279	2	15	10	0	0	0	1.11356	-7.17481973	12	0	1.12	0.95;
	10280	1	149.8	37	0	0	0	1.05732421	-12.839392	110	0	1.12	0.95;
	10281	2	106	22.4	0	0	0	1.07868	-16.9937989	110	0	1.12	0.95;
	10282	2	363.9	100.1	0	0	0	1.06767	-21.4407776	110	0	1.12	0.95;
	10283	1	0	0	0	0	0	1.01467886	-23.3265897	13	0	1.12	0.95;
	10284	2	1122.7	280.7	0	0	0	1.12	-19.643384	110	0	1.12	0.95;
	10285	2	155.7	32.1	0	0	0	1.0574	-13.9843626	110	0	1.12	0.95;
	10288	2	197.5	44.6	0	0	0	1.03369	-16.7694987	110	0	1.12	0.95;
	10289	2	124.6	23.4	0	0	0	1.05256	-17.4796655	110	0	1.12	0.95;
	10290	2	148.9	31.1	0	0	0	1.06119	-22.3439925	110	0	1.12	0.95;
	10291	2	264.7	53.5	0	0	0	1.08362	-23.3416404	110	0	1.12	0.95;
	10292	2	364.8	158.7	0	0	0	1.08678	-11.9146975	110	0	1.12	0.95;
	10293	2	54.6	21.6	0	0	0	1.07356	-17.2305752	110	0	1.12	0.95;
	10294	2	17.5	3.9	0	0	1	1.08819	-13.0855489	110	0	1.12	0.95;
	10295	2	344.4	104	0	0	0	0.99474	-16.6327031	110	0	1.12	0.95;
	10296	2	275.3	104.1	0	0	0	1.08634	-17.3787284	110	0	1.12	0.95;
	10297	1	163.6	2.3	0	0	0	1.11134652	-6.01200491	110	0	1.12	0.95;
	10298	1	90.7	61	0	0	0	1.07201478	-5.8085756	110	0	1.12	0.95;
	10299	1	314	87	0	0	0	1.04694034	-7.1614507	110	0	1.12	0.95;
	10300	1	34	13	0	0	0	1.0440893	-10.3433466	110	0	1.12	0.95;
	10301	1	107	-22	0	0	0	1.0785356	-6.31883038	110	0	1.12	0.95;
	10302	1	161	58	0	0	0	1.09213135	-9.85633548	110	0	1.12	0.95;
	10303	1	161.5	37	0	0	0	1.05529568	-9.43063565	110	0	1.12	0.95;
	10304	1	161.5	37	0	0	0	1.05529568	-9.43063565	110	0	1.12	0.95;
	10305	1	232	-45.9	0	0	0	1.10806356	-7.1932865	110	0	1.12	0.95;
	10306	1	143	58.1	0	0	0	1.09146207	-5.67608599	110	0	1.12	0.95;
	10307	1	111.5	32.5	0	0	0	1.07241024	-9.37539878	110	0	1.12	0.95;
	10308	1	111.5	32.5	0	0	0	1.09137096	-6.80645066	110	0	1.12	0.95;
	10309	1	124	8.1	0	0	0	1.06291792	-4.74144393	110	0	1.12	0.95;
	10310	1	28.5	6	0	0	0	1.04084415	-11.0567178	110	0	1.12	0.95;
	10311	1	28.5	6	0	0	0	1.04084415	-11.0567178	110	0	1.12	0.95;
	10312	1	135	74	0	0	0	1.0478647	-7.67508971	110	0	1.12	0.95;
	10313	1	0	0	0	0	0	1.04453225	-4.40143988	110	0	1.12	0.95;
	10314	1	0	0	0	0	0	1.04453856	-4.399812	110	0	1.12	0.95;
	10315	1	110	34	0	0	0	1.09352918	-3.3553676	110	0	1.12	0.95;
	10316	1	110	34	0	0	0	1.09338128	-3.35584647	110	0	1.12	0.95;
	10317	1	100	32	0	0	0	1.09382583	-3.35441074	110	0	1.12	0.95;
	10318	1	37	35	0	0	0	1.05287047	-3.98786193	110	0	1.12	0.95;
	10319	1	93	80	0	0	0	1.06174399	-6.20789802	110	0	1.12	0.95;
	10320	1	30	18	0	0	0	1.07982016	-4.05614655	110	0	1.12	0.95;
	10321	1	189	38	0	0	0	1.03524162	-12.2411908	110	0	1.12	0.95;
	10322	1	78.5	21	0	0	0	1.07973749	-6.75284921	110	0	1.12	0.95;
	10323	1	78.5	21	0	0	0	1.07973749	-6.75284921	110	0	1.12	0.95;
	10324	1	190	22	0	0	0	1.09021644	-7.05306212	110	0	1.12	0.95;
	10325	1	42.6	31.4	0	0	0	1.03671899	-4.32551034	110	0	1.12	0.95;
	10326	1	170.4	125.6	0	0	0	1.05027921	-5.82666309	110	0	1.12	0.95;
	10327	1	106	50	0	0	0	1.02245396	-10.3451268	110	0	1.12	0.95;
	10328	1	94	60.6	0	0	0	1.01614804	-6.73184774	110	0	1.12	0.95;
	10329	1	94	60.6	0	0	0	1.01614804	-6.73184774	110	0	1.12	0.95;
	10330	1	133.5	25.5	0	0	0	1.0238489	-12.7178602	110	0	1.12	0.95;
	10331	1	133.5	25.5	0	0	0	1.0238489	-12.7178602	110	0	1.12	0.95;
	10332	1	121	31.9	0	0	0	1.03347157	-10.647302	110	0	1.12	0.95;
	10333	1	125	3	0	0	0	1.11833984	-8.88838838	110	0	1.12	0.95;
	10334	1	210	0	0	0	0	1.014102	-24.2366628	110	0	1.12	0.95;
	10335	1	62	33.5	0	0	0	1.05344855	-7.19173579	110	0	1.12	0.95;
	10336	1	62	33.5	0	0	0	1.05344855	-7.19173579	110	0	1.12	0.95;
	10337	1	85	5	0	0	0	1.02004324	-4.5334706	110	0	1.12	0.95;
	10338	1	85	5	0	0	0	1.02118324	-4.04251159	110	0	1.12	0.95;
	10339	1	147	36	0	0	0	1.0445073	-4.40605607	110	0	1.12	0.95;
	10340	1	147	36	0	0	0	1.04455259	-4.39723149	110	0	1.12	0.95;
	10341	1	44	0	0	0	0	1.08629136	-4.31575655	110	0	1.12	0.95;
	10342	1	33	-19	0	0	0	1.02355159	-3.38591263	110	0	1.12	0.95;
	10343	1	107	22	0	0	0	1.04892628	-5.63644592	110	0	1.12	0.95;
	10344	1	157	46	0	0	0	1.08544959	-8.2454999	110	0	1.12	0.95;
	10345	1	95	21	0	0	0	1.10621876	-9.63571224	110	0	1.12	0.95;
	10346	1	67.5	7	0	0	0	1.0439474	-10.9667202	110	0	1.12	0.95;
	10347	1	67.5	7	0	0	0	1.0439474	-10.9667202	110	0	1.12	0.95;
	10348	1	102	17	0	0	0	1.07050061	-6.28453555	110	0	1.12	0.95;
	10349	1	102	17	0	0	0	1.05864789	-6.36844671	110	0	1.12	0.95;
	10350	1	109	25	0	0	0	1.0899888	-2.17368006	110	0	1.12	0.95;
	10351	1	181	45.1	0	0	0	1.06549751	-5.24123992	110	0	1.12	0.95;
	10352	1	45	25	0	0	0	1.06550809	-3.67740545	110	0	1.12	0.95;
	10353	1	62	38.5	0	0	0	1.11853963	-8.63828339	110	0	1.12	0.95;
	10354	1	62	38.5	0	0	0	1.11853963	-8.63828339	110	0	1.12	0.95;
	10355	1	300	57	0	0	0	1.05615612	-9.79184193	110	0	1.12	0.95;
	10356	1	15	3	0	0	0	1.043255	-20.2563246	110	0	1.12	0.95;
	10357	1	79	6	0	0	0	1.08640749	-7.46628518	110	0	1.12	0.95;
	10358	1	296	58	0	0	0	1.12000091	-9.83039541	110	0	1.12	0.95;
	10359	1	0	0	0	0	0	1.05446504	-9.49587663	110	0	1.12	0.95;
	10360	1	240	71	0	0	0	1.05390116	-9.69420744	110	0	1.12	0.95;
	10361	1	265	46.1	0	0	0	1.05131737	-10.6590307	110	0	1.12	0.95;
	10366	1	0	0	0	0	0	1.02161519	-7.97919754	22	0	1.12	0.95;
	10367	1	0	0	0	0	0	1.0216254	-7.97919754	110	0	1.12	0.95;
	10368	1	0	0	0	0	0	1.05530626	-8.47487743	110	0	1.12	0.95;
	10369	1	0	0	0	0	0	1.05529571	-8.47487743	22	0	1.12	0.95;
	1	1	0	0	0	0	1	1.10683257	-0.314151217	220	1	1.11	0.95;
	2	1	0	0	0	0	1	1.10782779	1.35379474	220	1	1.11	0.95;
	3	1	0	0	0	0	1	1.05756762	-30.247766	220	1	1.11	0.95;
	4	1	0	0	0	0	1	1.05750964	-30.2567038	220	1	1.11	0.95;
	5	1	0	0	0	0	1	1.06864116	-32.6286345	220	1	1.11	0.95;
	6	1	0	0	0	0	1	1.07539159	-5.84595644	220	1	1.11	0.95;
	7	1	0	0	0	0	1	1.07537237	-5.84638828	220	1	1.11	0.95;
	8	1	0	0	0	0	1	1.08119749	-18.6246187	220	1	1.11	0.95;
	9	1	0	0	0	0	1	1.08148505	-18.6077305	220	1	1.11	0.95;
	10	1	0	0	0	0	1	1.08476053	-22.3320983	220	1	1.11	0.95;
	11	1	0	0	0	0	1	1.02299305	-13.6626699	400	1	1.05	0.95;
	12	1	0	0	0	0	1	1.02309457	-13.6550645	400	1	1.05	0.95;
	13	1	0	0	0	0	1	1.00577409	-18.0311799	400	1	1.05	0.95;
	14	1	0	0	0	0	1	1.03497725	-18.3485996	220	1	1.11	0.95;
	15	1	0	0	0	0	1	1.03520468	-18.3463707	220	1	1.11	0.95;
	16	1	0	0	0	0	1	1.03526976	-18.3358182	220	1	1.11	0.95;
	17	1	0	0	0	0	1	1.01158558	-23.134555	220	1	1.11	0.95;
	18	1	0	0	0	0	1	1.01807556	-22.6588115	220	1	1.11	0.95;
	19	1	0	0	0	0	1	1.02309063	-11.9165879	400	1	1.05	0.95;
	20	1	0	0	0	0	1	1.02314848	-11.9067	400	1	1.05	0.95;
	21	1	0	0	0	0	1	1.00880419	-21.7314907	400	1	1.05	0.95;
	22	1	0	0	0	0	1	1.0112817	-17.6936181	400	1	1.05	0.95;
	23	1	0	0	0	0	1	1.0112817	-17.6936181	400	1	1.05	0.95;
	24	2	10	20.1	0	0	1	1.07767	-24.5314438	220	1	1.11	0.95;
	25	1	10	20.1	0	0	1	1.07760085	-24.5290106	220	1	1.11	0.95;
	26	1	0	0	0	0	1	1.08552023	-4.80872244	220	1	1.11	0.95;
	27	1	0	0	0	0	1	1.08564999	-4.82025339	220	1	1.11	0.95;
	28	1	0	0	0	0	1	1.03827787	-19.6947192	220	1	1.11	0.95;
	29	1	0	0	0	0	1	1.03822077	-19.6945768	220	1	1.11	0.95;
	30	1	0	0	0	0	1	1.0342264	-17.9614945	220	1	1.11	0.95;
	31	1	0	0	0	0	1	1.03415516	-17.973825	220	1	1.11	0.95;
	32	1	0	0	0	0	1	1.08443902	-2.61603846	220	1	1.11	0.95;
	33	1	0	0	0	0	1	1.08434044	-2.63916832	220	1	1.11	0.95;
	34	1	0	0	0	0	1	1.02011771	-14.8766881	400	1	1.05	0.95;
	35	1	0	0	0	0	1	1.02008137	-14.8817673	400	1	1.05	0.95;
	36	1	0	0	0	0	1	1.00789889	-18.1177484	400	1	1.05	0.95;
	37	3	48.7	86.2	0	0	1	1.11	0	220	1	1.11	0.95;
	38	2	54.5	89.9	0	0	1	1.11	1.65306126	220	1	1.11	0.95;
	39	2	20.1	40.2	0	0	1	1.11	1.64667316	220	1	1.11	0.95;
	40	2	60.3	120.6	0	0	1	1.04756	0.0615375563	400	1	1.05	0.95;
	41	2	60.3	120.6	0	0	1	1.04755	0.0674458021	400	1	1.05	0.95;
	42	1	0	0	0	0	1	1.02569941	-19.288161	220	1	1.11	0.95;
	43	1	0	0	0	0	1	1.02559009	-19.2945894	220	1	1.11	0.95;
	44	1	0	0	0	0	1	1.0500101	-1.52371104	400	1	1.05	0.95;
	45	1	0	0	0	0	1	1.04999455	-1.52728026	400	1	1.05	0.95;
	46	1	0	0	0	0	1	1.03093328	-18.7146684	220	1	1.11	0.95;
	47	1	0	0	0	0	1	1.06073151	-7.92877412	220	1	1.11	0.95;
	48	1	0	0	0	0	1	1.06074961	-7.9437662	220	1	1.11	0.95;
	49	1	0	0	0	0	1	1.0933311	-12.4051136	220	2	1.11	0.95;
	50	1	0	0	0	0	1	1.09041058	-11.0744448	220	2	1.11	0.95;
	51	1	0	0	0	0	1	1.10262738	-9.76268334	220	2	1.11	0.95;
	52	1	0	0	0	0	1	1.1026016	-9.76587547	220	2	1.11	0.95;
	53	1	0	0	0	0	1	1.07031017	-14.4065563	220	2	1.11	0.95;
	54	1	3.2	1	0	0	1	1.09977708	-8.93992479	220	2	1.11	0.95;
	55	1	0	0	0	0	1	1.09983759	-8.93656687	220	2	1.11	0.95;
	56	1	0	0	0	0	1	1.03564398	-8.64211705	400	2	1.05	0.95;
	57	2	26.1	60.3	0	0	1	1.10991	-10.7442679	220	2	1.11	0.95;
	58	2	54.3	120.6	0	0	1	1.1097	-10.7514588	220	2	1.11	0.95;
	59	2	13.1	30.1	0	0	1	1.11	-10.7404816	220	2	1.11	0.95;
	60	2	26.1	50.2	0	0	1	1.05	-9.5802744	400	2	1.05	0.95;
	61	1	26.1	50.2	0	0	1	1.04992388	-9.57929701	400	2	1.05	0.95;
	62	1	0	0	0	0	1	1.09415837	-9.6889622	220	2	1.11	0.95;
	63	1	0	0	0	0	1	1.04455603	-9.73543035	400	2	1.05	0.95;
	64	1	0	0	0	0	1	1.0445525	-9.73716004	400	2	1.05	0.95;
	65	1	0	0	0	0	1	1.04745594	-10.9913059	400	2	1.05	0.95;
	66	1	0	0	0	0	1	1.07709057	-12.596061	220	2	1.11	0.95;
	67	1	0	0	0	0	1	1.07707973	-12.5910177	220	2	1.11	0.95;
	68	1	0	0	0	0	1	1.04520206	-9.50843558	400	2	1.05	0.95;
	69	1	0	0	0	0	1	1.04519125	-9.50680322	400	2	1.05	0.95;
	70	1	13.1	30.1	0	0	1	1.10739425	-8.51333071	220	2	1.11	0.95;
	71	2	13.1	30.1	0	0	1	1.10739	-8.51662632	220	2	1.11	0.95;
	72	1	13.1	30.1	0	0	1	1.04287251	-8.31037045	400	2	1.05	0.95;
	73	1	26.1	60.3	0	0	1	1.04290296	-8.31178494	400	2	1.05	0.95;
	74	1	149.7	60.3	0	0	1	1.10429573	-11.6211097	220	2	1.11	0.95;
	75	1	29.1	10	0	0	1	1.10426887	-11.6224015	220	2	1.11	0.95;
	76	1	0	0	0	0	1	1.0961868	-9.79661279	220	2	1.11	0.95;
	77	1	0	0	0	0	1	1.09619339	-9.79375693	220	2	1.11	0.95;
	78	1	0	0	0	0	1	1.10130793	-11.5757154	220	2	1.11	0.95;
	79	1	0	0	0	0	1	1.1013314	-11.580008	220	2	1.11	0.95;
	80	1	0	0	0	0	1	1.05001855	-8.90989932	400	2	1.05	0.95;
	81	1	0	0	0	0	1	1.04999383	-8.91540253	400	2	1.05	0.95;
	82	1	0	0	0	0	1	1.09851565	-11.0529501	220	2	1.11	0.95;
	83	1	0	0	0	0	1	1.09946668	-10.9334903	220	2	1.11	0.95;
	84	1	0	0	0	0	1	1.07860821	-11.3898533	220	2	1.11	0.95;
	85	1	0	0	0	0	1	1.09228589	-4.02014936	220	3	1.11	0.95;
	86	1	9.4	0	0	0	1	1.09032449	-8.24543644	220	3	1.11	0.95;
	87	1	8.2	0	0	0	1	1.09034158	-8.24459242	220	3	1.11	0.95;
	88	1	0	0	0	0	1	1.09295307	-3.38209121	220	3	1.11	0.95;
	89	1	0	0	0	0	1	1.09307684	-3.36689326	220	3	1.11	0.95;
	90	1	0	0	0	0	1	1.10865707	-2.83199304	220	3	1.11	0.95;
	91	1	0	0	0	0	1	1.10867008	-2.8339826	220	3	1.11	0.95;
	92	1	0	0	0	0	1	1.06580928	-5.97539636	220	3	1.11	0.95;
	93	1	0	0	0	0	1	1.06557822	-5.97673633	220	3	1.11	0.95;
	94	2	28.1	70.3	0	0	1	1.10247	-2.37760329	220	3	1.11	0.95;
	95	2	42.2	103.5	0	0	1	1.10442	-2.03358645	220	3	1.11	0.95;
	96	1	7.7	-25	0	0	1	1.09045452	-3.44998318	220	3	1.11	0.95;
	97	1	0	0	0	0	1	1.0904276	-3.45050565	220	3	1.11	0.95;
	98	2	32.2	142.7	0	0	1	1.05	-3.63005798	400	3	1.05	0.95;
	99	1	0	0	0	0	1	1.04992839	-3.65777055	400	3	1.05	0.95;
	100	1	0	0	0	0	1	1.06229687	-4.95833044	220	3	1.11	0.95;
	101	1	0	0	0	0	1	1.10669967	-2.78286514	220	3	1.11	0.95;
	102	1	0	0	0	0	1	1.10666731	-2.77694099	220	3	1.11	0.95;
	103	1	45.1	7.9	0	0	1	1.09506349	-3.84298924	220	3	1.11	0.95;
	104	1	0	0	0	0	1	1.09500283	-3.84816932	220	3	1.11	0.95;
	105	1	0	0	0	0	1	1.09906757	-2.20338739	220	3	1.11	0.95;
	106	1	0	0	0	0	1	1.09897168	-2.20516789	220	3	1.11	0.95;
	107	1	0	0	0	0	1	1.09935125	-3.39700157	220	3	1.11	0.95;
	108	1	0	0	0	0	1	1.0993439	-3.40201866	220	3	1.11	0.95;
	109	1	0	0	0	0	1	1.0433956	-1.87822395	400	3	1.05	0.95;
	110	1	0	0	0	0	1	1.04339712	-1.88011717	400	3	1.05	0.95;
	111	1	0	0	0	0	1	1.10342887	-2.26569345	220	3	1.11	0.95;
	112	1	0	0	0	0	1	1.10347332	-2.26782241	220	3	1.11	0.95;
	113	1	0	0	0	0	1	1.08224519	-3.44725993	220	3	1.11	0.95;
	114	1	0	0	0	0	1	1.08215674	-3.45494777	220	3	1.11	0.95;
	115	1	29.4	18.5	0	0	1	1.09645769	-3.2900099	220	3	1.11	0.95;
	116	1	0	0	0	0	1	1.0964339	-3.29998928	220	3	1.11	0.95;
	117	1	0	0	0	0	1	1.09038174	-8.22514332	220	3	1.11	0.95;
	118	1	0	0	0	0	1	1.09037342	-8.22316511	220	3	1.11	0.95;
	119	1	0	0	0	0	1	1.05300027	-6.01562078	220	3	1.11	0.95;
	120	1	0	0	0	0	1	1.05297472	-6.0126575	220	3	1.11	0.95;
	121	2	0	0	0	0	1	1.10917293	-2.73496401	220	3	1.11	0.95;
	122	2	10	44.2	0	0	1	1.10922	-2.74400605	220	3	1.11	0.95;
	123	2	7	18.1	0	0	1	1.10624	-2.15053263	220	3	1.11	0.95;
	124	2	8	21.1	0	0	1	1.10639	-2.14256827	220	3	1.11	0.95;
	125	1	0	0	0	0	1	1.0926368	-4.42094093	220	3	1.11	0.95;
	126	1	71.5	7.9	0	0	1	1.09267808	-4.4295759	220	3	1.11	0.95;
	127	1	0	0	0	0	1	1.05868818	-4.90588517	220	3	1.11	0.95;
	128	1	0	0	0	0	1	1.08560406	-3.10788596	220	3	1.11	0.95;
	129	1	0	0	0	0	1	1.08563829	-3.10951726	220	3	1.11	0.95;
	130	1	0	0	0	0	1	1.08830654	-3.48023611	220	3	1.11	0.95;
	131	1	0	0	0	0	1	1.0884044	-3.47158914	220	3	1.11	0.95;
	132	1	0	0	0	0	1	1.04276996	-5.10720135	400	3	1.05	0.95;
	133	1	0	0	0	0	1	1.04276996	-5.10720135	400	3	1.05	0.95;
	134	2	0	0	0	0	1	1.09925422	-2.86287013	220	3	1.11	0.95;
	135	1	9	20.1	0	0	1	1.09922456	-2.86398878	220	3	1.11	0.95;
	136	1	6	15.1	0	0	1	1.07792913	-4.17195003	220	3	1.11	0.95;
	137	1	0	0	0	0	1	1.07794934	-4.18193896	220	3	1.11	0.95;
	138	1	0	0	0	0	1	1.04757526	-8.73150417	400	3	1.05	0.95;
	139	1	0	0	0	0	1	1.0476133	-8.7300127	400	3	1.05	0.95;
	140	1	0	0	0	0	1	1.05002893	-5.16347296	400	3	1.05	0.95;