function mpc = case89pegase_res
%CASE89PEGASE_RES

%% MATPOWER Case Format : Version 2
mpc.version = '2';

%%-----  Power Flow Data  -----%%
%% system MVA base
mpc.baseMVA = 100;

%% bus data
%	bus_i	type	Pd	Qd	Gs	Bs	area	Vm	Va	baseKV	zone	Vmax	Vmin
mpc.bus = [
	89	1	0	0	0.199111	4.530599	0	0.998636411	-2.72775001	380	2	1.1	0.9;
	228	1	-23.43	57.4	0	0	0	1.05218855	-6.26185686	150	2	1.1	0.9;
	271	1	96.7	26.8	0	0	0	1.03930315	-7.77600103	150	2	1.1	0.9;
	317	1	-0	-0	0.045946	-1.82203	0	1.05212472	7.79812217	380	2	1.1	0.9;
	659	1	-0	-0	0.174507	73.977052	0	1.05113119	7.75835238	380	2	1.1	0.9;
	792	1	295.3	41.9	0	0	0	1.03418611	-0.892077064	150	2	1.1	0.9;
	913	3	0	0	0	0	0	1.030951	0	380	2	1.1	0.9;
	955	1	244.2	152.7	0	0	0	1.00246545	-9.13350014	150	2	1.1	0.9;
	1037	1	-0	0	0	0.55	0	1.05299727	6.6084597	380	2	1.1	0.9;
	1163	1	-0	-0	0	16.04	0	1.0097618	0.452511895	380	2	1.1	0.9;
	1317	1	149.3	-2	0	20.77	0	1.03858423	4.86035983	380	2	1.1	0.9;
	1367	1	0	-0	0.175687	-1.509401	0	1.02338084	1.55535291	380	2	1.1	0.9;
	1445	1	238.4	210.9	0	0	0	1.03457068	1.56594063	220	2	1.1	0.9;
	1531	1	-0	0	0	0	0	1.01859734	-9.56118805	150	2	1.1	0.9;
	1579	1	-0	0	0	16.56	0	1.0065433	-3.37223417	380	2	1.1	0.9;
	1611	1	274.1	166.5	0	0.56	0	1.04630398	-7.25626806	150	2	1.1	0.9;
	1616	1	0	0	0	14.45	0	1.0054104	-2.07512088	380	2	1.1	0.9;
	1676	1	-0	0	0.171586	-1.4632	0	1.00936753	0.393065021	380	2	1.1	0.9;
	1815	1	63.66	9.7	0	0	0	1.05777125	1.93037779	220	2	1.1	0.9;
	1968	1	118.4	137	0	0	0	1.02307955	-9.07648396	150	2	1.1	0.9;
	2107	2	0	0	0	0	0	1.03888	1.91159134	380	2	1.1	0.9;
	2154	1	-357.45	33.05	0.29	-5.6	0	1.03829162	4.11961793	380	2	1.1	0.9;
	2168	1	8.6	-1.48	0	0	0	1.01637599	-10.9866442	150	2	1.1	0.9;
	2267	2	0	0	0	0	0	1.038741	13.145635	380	2	1.1	0.9;
	2268	1	0	-0	0.183167	22.675025	0	0.992929874	-3.22760816	380	2	1.1	0.9;
	2299	1	402.1	110.2	0	0	0	1.04144954	-9.18776606	150	2	1.1	0.9;
	2441	1	0	-0	0.242534	1.143584	0	0.991005044	-2.85102742	380	2	1.1	0.9;
	2449	1	301.9	-103.2	0	0	0	1.08693442	-3.97502335	150	2	1.1	0.9;
	2520	1	-0	-0	0.057433	3.80797	0	0.999733034	-2.8641953	380	2	1.1	0.9;
	2870	1	-0	0	0	0.62	0	1.05299728	6.6084581	380	2	1.1	0.9;
	2908	1	203.8	61	0	0.6	0	1.0224155	-8.62645709	150	2	1.1	0.9;
	3097	1	361.91	3.66	0	9.39	0	1.04872189	6.05319865	380	2	1.1	0.9;
	3242	1	296.1	82.3	0	0	0	1.05450422	-7.41219806	150	2	1.1	0.9;
	3279	1	0	0	0	0	0	1.03425793	-0.851682154	150	2	1.1	0.9;
	3493	1	226.3	61.1	0	0	0	1.04062943	-8.48082955	150	2	1.1	0.9;
	3506	1	0	0	0	0.6	0	1.00270799	-9.09977148	150	2	1.1	0.9;
	3659	2	0	0	0	0	0	1.05217	3.04798232	380	2	1.1	0.9;
	4014	1	0	0	0	0	0	1.033972	-11.2114063	150	2	1.1	0.9;
	4423	1	-0	-0	0	0.33	0	1.04150967	-9.1845659	150	2	1.1	0.9;
	4427	1	296.8	77.7	0	0	0	1.03688412	-8.98910886	150	2	1.1	0.9;
	4495	1	336.3	104.4	0	0	0	1.03849693	-8.94381191	150	2	1.1	0.9;
	4586	2	0	0	0	0	0	1.047701	-8.93680308	150	2	1.1	0.9;
	4665	1	390.5	62.5	0	0	0	1.03890887	-9.57284304	150	2	1.1	0.9;
	4929	1	37	8.7	0.070441	50.913893	0	1.05299461	6.60847231	380	2	1.1	0.9;
	5097	2	0	0	0	0	0	1.05444	-7.40911723	150	2	1.1	0.9;
	5155	1	411.3	168	0	0	0	1.03099809	-8.93575238	150	2	1.1	0.9;
	5210	1	347.61	74.37	0	0	0	1.0328914	1.84320118	220	2	1.1	0.9;
	5416	1	0	0	0	25.13	0	1.03839457	13.3701282	380	2	1.1	0.9;
	5509	1	0	0	0.314057	17.296509	0	0.998444467	-4.24945611	380	2	1.1	0.9;
	5587	1	-0	-0	0	0.33	0	1.04076306	-8.45288705	150	2	1.1	0.9;
	5762	1	0	0	0	2.23	0	1.04231533	2.39822769	380	2	1.1	0.9;
	5776	1	222.7	80.5	0	0	0	1.07434063	-5.36973017	150	2	1.1	0.9;
	5848	1	0	-0	0.29	-0.42	0	1.0093606	-3.0193471	380	2	1.1	0.9;
	5996	1	-0	-0	0.164188	4.023827	0	1.04226698	2.39845769	380	2	1.1	0.9;
	6069	1	-456.66	-131.97	0.285753	35.371068	0	0.977260539	-4.16482586	380	2	1.1	0.9;
	6233	2	0	0	0	0	0	1.052521	7.85523592	380	2	1.1	0.9;
	6293	1	-0	0	0	33.66	0	0.994290848	-2.46287281	380	2	1.1	0.9;
	6542	1	355.98	-147.98	0	0	0	1.07014158	-0.547689356	220	2	1.1	0.9;
	6704	1	-0	-0	0.211099	0.672832	0	1.00349241	-1.52463738	380	2	1.1	0.9;
	6798	2	0	0	0	0	0	1.053791	8.13652804	380	2	1.1	0.9;
	6826	1	326.9	-82.3	0	0	0	1.07655509	-5.7851812	150	2	1.1	0.9;
	6833	1	0	0	0.246363	4.841277	0	0.968382188	-4.88137153	380	2	1.1	0.9;
	7051	1	0	0	0	21.19	0	1.01408914	1.5161211	380	2	1.1	0.9;
	7180	1	-0	0	0.234234	4.220723	0	0.970984397	-4.96980047	380	2	1.1	0.9;
	7279	2	0	0	0	0	0	1.033972	-11.2114063	150	2	1.1	0.9;
	7526	1	-179.73	-63.08	0	0	0	1.01535961	-2.23343993	380	2	1.1	0.9;
	7563	1	531.7	-12.8	0	0	0	1.04077858	-11.0869191	150	2	1.1	0.9;
	7637	1	0	0	0.29	6.18	0	1.03571522	19.54036	380	2	1.1	0.9;
	7762	1	-0	0	0.304243	48.453399	0	1.01070445	-1.70813019	380	2	1.1	0.9;
	7829	1	-114.36	30.04	0	0	0	1.06104589	-2.76309469	220	2	1.1	0.9;
	7960	2	0	0	0	0	0	1.052291	7.89029383	380	2	1.1	0.9;
	8103	1	39.34	-10.7	0	0	0	1.00455143	0.142144851	150	2	1.1	0.9;
	8179	1	-0	0	0.194464	19.1468	0	1.00098011	-3.33828661	380	2	1.1	0.9;
	8181	1	0	-0	0.210824	6.620599	0	1.00220159	-2.95688547	380	2	1.1	0.9;
	8229	1	0	0	0	0	0	1.07434063	-5.36973017	150	2	1.1	0.9;
	8329	1	0	0	0.149712	2.04987	0	1.04442636	7.17309035	380	2	1.1	0.9;
	8335	1	637.92	139.57	0	0	0	1.01856623	-9.58460522	150	2	1.1	0.9;
	8420	1	-0	0	0	0	0	1.04662862	-7.20308683	150	2	1.1	0.9;
	8574	1	-0	0	0.447839	20.994738	0	1.00343798	-1.90941898	380	2	1.1	0.9;
	8581	1	-1299.13	-140.85	0	0	0	1.03959098	30.7397384	380	2	1.1	0.9;
	8605	2	0	0	0	0	0	1.023822	1.61863152	380	2	1.1	0.9;
	8847	1	-0	0	0.18076	-0.881251	0	1.01221537	1.21084074	380	2	1.1	0.9;
	8921	1	0	0	0	16.37	0	1.00665996	-1.11333873	380	2	1.1	0.9;
	8964	1	925.91	147.97	0	0	0	1.01623309	-11.0176703	150	2	1.1	0.9;
	9024	1	0	0	0.141019	25.246	0	1.05780578	3.5978043	380	2	1.1	0.9;
	9025	1	0	-0	0.205903	3.0768	0	1.00476191	-2.61451529	380	2	1.1	0.9;
	9064	1	0	-0	0	15.26	0	1.00490238	-2.06329264	380	2	1.1	0.9;
	9192	1	17.92	23.3	0	0	0	1.02417419	-8.84546423	150	2	1.1	0.9;
	9239	2	0	0	0	0	0	1.052319	7.89463662	380	2	1.1	0.9;
];

%% generator data
%	bus	Pg	Qg	Qmax	Qmin	Vg	mBase	status	Pmax	Pmin	Pc1	Pc2	Qc1min	Qc1max	Qc2min	Qc2max	ramp_agc	ramp_10	ramp_30	ramp_q	apf
mpc.gen = [
	913	1249.10231	696.323675	772.11	-269.94	1.030951	100	1	1700	566.67	0	0	0	0	0	0	0	0	0	0	0;
	2107	1269.4	588.337672	661.9	-257.62	1.03888	100	1	1500	500	0	0	0	0	0	0	0	0	0	0	0;
	2267	362	200.978114	228.16	-78.83	1.038741	100	1	500	166.67	0	0	0	0	0	0	0	0	0	0	0;
	3659	1097.4	689.6615	943.64	-282.01	1.05217	100	1	2000	666.67	0	0	0	0	0	0	0	0	0	0	0;
	4586	-545.7	42.6814492	92.96	-29.81	1.047701	100	1	100	-727.6	0	0	0	0	0	0	0	0	0	0	0;
	5097	21.1	3.14188704	8.91	-4.11	1.05444	100	1	21.23	7.08	0	0	0	0	0	0	0	0	0	0	0;
	6233	879.6	369.492609	545.68	-189.97	1.052521	100	1	1200	400	0	0	0	0	0	0	0	0	0	0	0;
	6798	949.7	273.699009	429.61	-183.48	1.053791	100	1	1000	333.33	0	0	0	0	0	0	0	0	0	0	0;
	7279	-681.7	5.37949434	14.78	-6.64	1.033972	100	1	100	-908.93	0	0	0	0	0	0	0	0	0	0	0;
	7960	419	154.28424	274.2	-93.22	1.052291	100	1	600	200	0	0	0	0	0	0	0	0	0	0	0;
	8605	427	193.780666	273.94	-93.65	1.023822	100	1	600	200	0	0	0	0	0	0	0	0	0	0	0;
	9239	419	154.105299	274.2	-93.22	1.052319	100	1	600	200	0	0	0	0	0	0	0	0	0	0	0;
];

%% branch data
%	fbus	tbus	r	x	b	rateA	rateB	rateC	ratio	angle	status	angmin	angmax	Pf	Qf	Pt	Qt
mpc.branch = [
	3097	659	0.00073	0.00905	0	1205	0	0	0	0	1	-360	360	-361.9100	6.6673	362.7797	4.1141;
	9024	4929	0.00192	0.02296	0	909	0	0	0	0	1	-360	360	-250.6345	49.8208	251.7549	-36.4218;
	1815	6542	0.01431	0.05899	0	0	0	0	0	0	1	-360	360	73.6860	-38.2622	-72.8044	41.8967;
	6542	1445	0.02607	0.07168	0	0	0	0	0	0	1	-360	360	-32.9149	66.1273	34.1570	-62.7122;
	6069	6833	0.00054	0.00465	0	1600	0	0	0	0	1	-360	360	272.6913	156.5147	-272.1324	-151.7014;
	6069	2268	0.00126	0.01124	0	1633	0	0	0	0	1	-360	360	-154.4108	-117.7725	154.9084	122.2110;
	6069	7180	0.00048	0.00527	0	1567	0	0	0	0	1	-360	360	261.5556	94.3379	-261.1670	-90.0718;
	6069	6293	0.00082	0.00938	0	1600	0	0	0	0	1	-360	360	-320.3313	-144.8579	321.3925	156.9970;
	1968	9192	0.00028	0.003502	0	0	0	0	0	0	1	-360	360	-122.3953	-21.9498	122.4366	22.4671;
	1968	3493	0.691467	4.414711	0	0	0	0	0	0	1	-360	360	-0.3067	-0.3574	0.3081	0.3667;
	1968	955	0.02004	0.0916	0	0	0	0	0	0	1	-360	360	5.8704	21.7401	-5.7733	-21.2963;
	1968	228	0.841911	4.768444	0	0	0	0	0	0	1	-360	360	-1.1773	-0.3894	1.1897	0.4595;
	1968	6826	0.026	0.08948	0	0	0	0	0	0	1	-360	360	-81.0052	-35.5741	82.9495	42.2655;
	1968	8964	0.002631	0.011889	0	319	0	0	0	0	1	-360	360	295.8815	-1.5436	-293.6809	11.4879;
	1968	5776	0.7232	1.944	0	0	0	0	0	0	1	-360	360	-4.0539	-1.0714	4.1753	1.3979;
	9192	955	0.156169	0.546756	0	0	0	0	0	0	1	-360	360	1.9473	3.5126	-1.9233	-3.4285;
	9192	6826	0.168809	0.580622	0	0	0	0	0	0	1	-360	360	-11.7521	-5.5520	12.0240	6.4871;
	9192	8964	0.019222	0.068209	0	0	0	0	0	0	1	-360	360	56.9802	-3.0374	-56.3836	5.1547;
	8574	1616	0.00039	0.00386	0	1435	0	0	0	0	1	-360	360	69.7065	-58.2080	-69.6746	58.5242;
	8574	1163	0.00096	0.01138	0	1468	0	0	0	0	1	-360	360	-368.3789	-17.1205	369.6756	32.4910;
	8574	9064	0.00037	0.00325	0	1435	0	0	0	0	1	-360	360	77.1894	-53.8889	-77.1568	54.1750;
	8574	8921	0.00029	0.00339	0	1600	0	0	0	0	1	-360	360	-418.8412	-56.6642	419.3557	62.6786;
	3493	2299	0.009458	0.158871	0	0	0	0	0	0	1	-360	360	8.3581	-0.9828	-8.3519	1.0867;
	2299	4423	0	0.000222	0	0	0	0	0	0	1	-360	360	-27.2896	-28.2086	27.2896	28.2117;
	6826	2299	0.312951	7.130667	0	0	0	0	0	0	1	-360	360	0.9558	0.5158	-0.9527	-0.4432;
	7563	2299	0.247649	1.075911	0	0	0	0	0	0	1	-360	360	-3.1728	0.7207	3.1970	-0.6156;
	4427	2299	0.06056	0.18612	0	0	0	0	0	0	1	-360	360	1.0718	-2.8887	-1.0664	2.9051;
	8335	2299	2.142489	4.347733	0	0	0	0	0	0	1	-360	360	-0.3483	-0.3639	0.3535	0.3745;
	5155	2299	0.07132	1.068889	0	0	0	0	0	0	1	-360	360	0.3730	-1.0320	-0.3722	1.0441;
	271	2299	0.02268	0.08652	0	0	0	0	0	0	1	-360	360	28.3009	-9.6172	-28.1133	10.3329;
	2449	2299	2.007778	4.494222	0	0	0	0	0	0	1	-360	360	2.3561	0.1516	-2.2614	0.0604;
	4665	2299	0.006178	0.028938	0	0	0	0	0	0	1	-360	360	-25.8784	-3.5120	25.9175	3.6949;
	4495	2299	0.027711	0.260951	0	0	0	0	0	0	1	-360	360	1.6220	-1.3435	-1.6209	1.3543;
	3493	5587	0	0.000222	0	319	0	0	0	0	1	-360	360	-237.9236	-62.5829	237.9236	62.7070;
	4586	3493	0.00692	0.337378	0	0	0	0	0	0	1	-360	360	-2.5254	2.2581	2.5262	-2.2228;
	228	3493	0.025991	0.10048	0	0	0	0	0	0	1	-360	360	42.6788	1.8817	-42.2504	-0.2253;
	6826	3493	0.083711	0.8648	0	0	0	0	0	0	1	-360	360	6.4786	3.9885	-6.4368	-3.5566;
	7563	3493	0.447378	1.862089	0	0	0	0	0	0	1	-360	360	-2.4848	0.6655	2.5121	-0.5517;
	4427	3493	0.062169	0.153191	0	0	0	0	0	0	1	-360	360	-6.2385	0.0244	6.2610	0.0310;
	8335	3493	2.492533	4.725778	0	0	0	0	0	0	1	-360	360	-0.5325	-0.1905	0.5402	0.2051;
	5155	3493	0.020271	0.08244	0	0	0	0	0	0	1	-360	360	-12.5272	-8.9237	12.5723	9.1071;
	271	3493	0.11416	1.777556	0	0	0	0	0	0	1	-360	360	0.7407	-0.1205	-0.7401	0.1298;
	5776	3493	0.574978	2.992578	0	0	0	0	0	0	1	-360	360	2.1898	0.8446	-2.1624	-0.7017;
	2449	3493	1.887067	4.964444	0	0	0	0	0	0	1	-360	360	1.9240	0.3529	-1.8629	-0.1921;
	4665	3493	0.250778	0.817422	0	0	0	0	0	0	1	-360	360	-2.3584	0.5289	2.3719	-0.4846;
	4495	3493	0.007049	0.029609	0	0	0	0	0	0	1	-360	360	-29.5691	-0.3208	29.6262	0.5609;
	5587	4586	0.003049	0.020218	0	0	0	0	0	0	1	-360	360	39.2998	-41.4487	-39.2079	42.0577;
	4423	4586	0.002911	0.020262	0	0	0	0	0	0	1	-360	360	-27.2896	-27.8538	27.3304	28.1378;
	4929	2870	4e-05	0.00041	0	777	0	0	0	0	1	-360	360	0.0000	-0.6875	-0.0000	0.6875;
	4929	659	0.00087	0.01087	0	1303	0	0	0	0	1	-360	360	-201.4411	36.2245	201.7698	-32.1177;
	4929	1037	4e-05	0.00046	0	777	0	0	0	0	1	-360	360	0.0000	-0.6098	0.0000	0.6098;
	4929	659	0.00095	0.00924	0	1501	0	0	0	0	1	-360	360	-235.4671	47.8571	235.9618	-43.0459;
	1815	5210	0.528017	2.636157	0	0	0	0	0	0	1	-360	360	0.2529	0.9477	-0.2483	-0.9250;
	1815	1445	0.032031	0.128659	0	0	0	0	0	0	1	-360	360	9.5700	16.7090	-9.4639	-16.2827;
	1616	7762	0.00044	0.0032	0	1665	0	0	0	0	1	-360	360	-221.9827	-135.1603	222.2767	137.2985;
	1616	2520	0.00046	0.00489	0	1731	0	0	0	0	1	-360	360	291.6573	91.2428	-291.2323	-86.7251;
	9064	7762	0.0003	0.00352	0	1600	0	0	0	0	1	-360	360	-191.5360	-148.7613	191.7107	150.8115;
	9064	89	0.00051	0.00454	0	1665	0	0	0	0	1	-360	360	268.6927	109.9963	-268.2670	-106.2065;
	1317	659	0.00068	0.00746	0	1633	0	0	0	0	1	-360	360	-747.8622	-87.7947	751.4367	127.0088;
	1317	8605	0.00093	0.01022	0	1764	0	0	0	0	1	-360	360	598.5622	112.1984	-595.3647	-77.0599;
	8605	1367	4e-05	0.0004	0	1501	0	0	0	0	1	-360	360	297.6232	83.3151	-297.5867	-82.9505;
	8605	8921	0.00078	0.00698	0	1764	0	0	0	0	1	-360	360	724.7415	187.5255	-720.5713	-150.2076;
	1163	1676	4e-05	0.00043	0	1600	0	0	0	0	1	-360	360	252.3676	69.2373	-252.3408	-68.9485;
	1163	7051	0.00025	0.00309	0	1698	0	0	0	0	1	-360	360	-622.0432	-85.3736	623.0098	97.3208;
	913	7762	0.00047	0.00538	0	1633	0	0	0	0	1	-360	360	607.3272	343.5275	-605.1743	-318.8837;
	2107	7762	0.00046	0.00548	0	1764	0	0	0	0	1	-360	360	1248.9310	467.5296	-1241.3512	-377.2308;
	2107	5996	0.00016	0.00173	0	1863	0	0	0	0	1	-360	360	-545.7724	-150.6557	546.2477	155.7941;
	2107	6293	0.00166	0.01471	0	1764	0	0	0	0	1	-360	360	566.2414	271.4637	-560.1764	-217.7194;
	913	7762	0.00051	0.00512	0	1797	0	0	0	0	1	-360	360	641.7751	352.7962	-639.2015	-326.9596;
	6704	8921	0.00021	0.00248	0	1534	0	0	0	0	1	-360	360	-301.0051	-101.6320	301.2156	104.1178;
	228	4586	0.004391	0.021689	0	306	0	0	0	0	1	-360	360	233.1776	-19.8991	-231.0054	30.6285;
	2441	6293	0.00024	0.00289	0	1665	0	0	0	0	1	-360	360	-238.6241	-92.0740	238.7840	93.9991;
	955	3506	0	0.000222	0	358	0	0	0	0	1	-360	360	-266.5431	-109.4406	266.5431	109.6240;
	955	8964	0.01788	0.100471	0	0	0	0	0	0	1	-360	360	30.0397	-18.5346	-29.8180	19.7802;
	3506	2908	0.006458	0.039982	0	0	0	0	0	0	1	-360	360	-28.4095	-44.7482	28.5899	45.8654;
	228	6826	0.106151	0.993333	0	0	0	0	0	0	1	-360	360	-1.2103	-2.4477	1.2174	2.5146;
	228	5776	0.699778	3.232311	0	0	0	0	0	0	1	-360	360	-0.6684	-0.5722	0.6733	0.5948;
	8964	6826	0.257058	0.43592	0	0	0	0	0	0	1	-360	360	-22.6778	0.3562	23.9582	1.8151;
	5776	6826	0.002769	0.011449	0	0	0	0	0	0	1	-360	360	64.5142	-36.1173	-64.3831	36.6596;
	659	8329	0.00034	0.00305	0	1600	0	0	0	0	1	-360	360	388.8038	189.6065	-388.2280	-184.4411;
	659	7051	0.00123	0.01255	0	1863	0	0	0	0	1	-360	360	949.7410	267.5227	-938.9027	-156.9368;
	659	9239	6e-05	0.00065	0	1435	0	0	0	0	1	-360	360	-418.8920	-152.9354	419.0000	154.1053;
	659	7960	6e-05	0.00063	0	1534	0	0	0	0	1	-360	360	-418.8920	-153.1500	419.0000	154.2842;
	659	6233	6e-05	0.00055	0	1764	0	0	0	0	1	-360	360	-364.7396	-225.5359	364.8394	226.4514;
	659	5416	0.00079	0.00968	0	1369	0	0	0	0	1	-360	360	-1079.7339	280.4640	1088.6322	-171.4326;
	659	6798	7e-05	0.00079	0	0	0	0	0	0	1	-360	360	-949.0842	-266.7497	949.7000	273.6990;
	792	3279	0	0.000222	0	397	0	0	0	0	1	-360	360	-339.6867	-33.3402	339.6867	33.5820;
	7563	792	2.064178	7.545333	0	0	0	0	0	0	1	-360	360	-2.2686	0.9368	2.3834	-0.5172;
	7279	792	0.153711	0.482489	0	0	0	0	0	0	1	-360	360	-35.0191	14.6953	37.0928	-8.1862;
	8335	792	0.015809	0.12368	0	0	0	0	0	0	1	-360	360	-127.0378	13.1575	129.5234	6.2881;
	2449	792	0.057978	0.363422	0	0	0	0	0	0	1	-360	360	-13.6982	18.4091	13.9566	-16.7894;
	4665	792	0.6932	2.196889	0	0	0	0	0	0	1	-360	360	-6.4882	2.8309	6.8100	-1.8109;
	4495	792	0.560356	2.395867	0	0	0	0	0	0	1	-360	360	-5.8137	1.9885	6.0099	-1.1498;
	5416	2267	0.00024	0.00213	0	777	0	0	0	0	1	-360	360	194.0894	-38.3694	-194.0023	39.1427;
	5416	7637	0.00093	0.00884	0	1303	0	0	0	0	1	-360	360	-1282.7216	236.8988	1297.3969	-97.4039;
	8964	2168	0	0.000222	0	332	0	0	0	0	1	-360	360	-251.9414	-65.3464	251.9414	65.4920;
	3659	5996	0.00018	0.00204	0	1797	0	0	0	0	1	-360	360	649.7086	456.8944	-648.6828	-445.2692;
	5762	5996	0.00018	0.00208	0	777	0	0	0	0	1	-360	360	-0.0000	2.4227	0.0000	-2.4226;
	3242	5097	0	0.000222	0	0	0	0	0	0	1	-360	360	-26.9316	30.5039	26.9316	-30.5006;
	7563	3242	0.02068	0.093391	0	0	0	0	0	0	1	-360	360	-74.5175	3.6206	75.5801	1.1781;
	4427	3242	0.777778	7.408	0	0	0	0	0	0	1	-360	360	-0.4268	-0.1962	0.4284	0.2114;
	3242	7279	0.00884	0.07292	0	0	0	0	0	0	1	-360	360	101.5797	20.6635	-100.7254	-13.6170;
	271	3242	0.131671	8.295556	0	0	0	0	0	0	1	-360	360	-0.0869	-0.1888	0.0869	0.1921;
	3242	1611	0.082462	0.568222	0	0	0	0	0	0	1	-360	360	-0.3011	1.5662	0.3030	-1.5532;
	5097	1611	0.0042	0.02624	0	0	0	0	0	0	1	-360	360	-5.8316	33.6425	5.8756	-33.3674;
	8181	8179	0.00031	0.00317	0	1271	0	0	0	0	1	-360	360	212.4709	18.5407	-212.3305	-17.1051;
	8181	7762	0.00043	0.00498	0	1501	0	0	0	0	1	-360	360	-454.2433	-127.0635	455.1958	138.0945;
	9025	7762	0.00042	0.00508	0	1731	0	0	0	0	1	-360	360	-323.5239	-88.2869	323.9918	93.9460;
	7563	4427	0.110671	0.773067	0	0	0	0	0	0	1	-360	360	-4.9207	1.3223	4.9472	-1.1370;
	7563	7279	0.00912	0.037609	0	0	0	0	0	0	1	-360	360	10.1872	16.3727	-10.1559	-16.2436;
	7563	8335	0.098049	0.598711	0	0	0	0	0	0	1	-360	360	-3.8953	4.5601	3.9279	-4.3613;
	7563	5155	0.019031	1.160356	0	0	0	0	0	0	1	-360	360	-3.4548	0.9991	3.4570	-0.8605;
	7563	271	0.024071	0.915733	0	0	0	0	0	0	1	-360	360	-6.8078	0.5438	6.8181	-0.1495;
	2449	7563	1.484267	4.479111	0	0	0	0	0	0	1	-360	360	3.2100	0.2507	-3.0797	0.1424;
	4665	7563	0.011578	0.063271	0	0	0	0	0	0	1	-360	360	43.2540	-10.3885	-43.0417	11.5485;
	4495	7563	0.654889	1.839111	0	0	0	0	0	0	1	-360	360	1.9227	-0.7724	-1.8966	0.8456;
	7563	1611	0.022049	0.10076	0	0	0	0	0	0	1	-360	360	-69.5910	11.9356	70.6058	-7.2983;
	4427	7279	0.459867	2.604711	0	0	0	0	0	0	1	-360	360	1.5730	-0.1308	-1.5623	0.1912;
	4427	8335	2.320222	6.088	0	0	0	0	0	0	1	-360	360	0.2616	0.2132	-0.2591	-0.2068;
	4427	5155	0.006369	0.048089	0	0	0	0	0	0	1	-360	360	-0.3825	12.7429	0.3921	-12.6702;
	4427	271	0.006631	0.0432	0	0	0	0	0	0	1	-360	360	-52.3833	2.7936	52.5530	-1.6879;
	2449	4427	2.567244	6.767111	0	0	0	0	0	0	1	-360	360	1.5602	0.2757	-1.5057	-0.1320;
	4665	4427	0.309889	1.214178	0	0	0	0	0	0	1	-360	360	-0.8060	0.3836	0.8083	-0.3746;
	4495	4427	0.009191	0.043289	0	0	0	0	0	0	1	-360	360	2.6679	3.3034	-2.6664	-3.2962;
	4427	1611	0.691022	5.239556	0	0	0	0	0	0	1	-360	360	-0.6384	-0.0928	0.6410	0.1130;
	5210	1445	0.002669	0.01718	0	0	0	0	0	0	1	-360	360	27.8694	-14.3529	-27.8449	14.5112;
	8179	5509	0.00074	0.00694	0	1271	0	0	0	0	1	-360	360	230.4800	13.8177	-230.0863	-10.1251;
	8179	7762	0.00068	0.008	0	1567	0	0	0	0	1	-360	360	-367.0112	-85.3593	367.9748	96.6958;
	7279	4014	0	0.000222	0	0	0	0	0	0	1	-360	360	0.0000	0.0000	0.0000	0.0000;
	8335	7279	0.00524	0.030631	0	0	0	0	0	0	1	-360	360	86.5498	-64.6486	-85.9603	68.0942;
	5155	7279	0.33932	3.814667	0	0	0	0	0	0	1	-360	360	1.0958	-0.1558	-1.0919	0.1998;
	271	7279	0.22696	2.614933	0	0	0	0	0	0	1	-360	360	2.4688	0.0715	-2.4559	0.0762;
	2449	7279	0.190671	0.719378	0	0	0	0	0	0	1	-360	360	20.6770	3.7662	-19.9641	-1.0765;
	4665	7279	1.050222	2.105556	0	0	0	0	0	0	1	-360	360	1.2738	-0.3709	-1.2567	0.4052;
	4495	7279	1.431644	4.294578	0	0	0	0	0	0	1	-360	360	0.9290	-0.1807	-0.9172	0.2164;
	1611	7279	0.022618	0.161089	0	0	0	0	0	0	1	-360	360	46.7504	3.0453	-46.2969	0.1844;
	5509	1579	0.00088	0.00895	0	1830	0	0	0	0	1	-360	360	-178.9350	-71.4394	179.2627	74.7721;
	8335	1531	0	0.000222	0	319	0	0	0	0	1	-360	360	-191.0076	-14.2351	191.0076	14.3136;
	5155	8335	1.827778	7.768	0	0	0	0	0	0	1	-360	360	0.1820	0.1230	-0.1812	-0.1195;
	2449	8335	0.020849	0.153382	0	0	0	0	0	0	1	-360	360	76.2032	41.5473	-74.8738	-31.7672;
	4665	8335	0.156231	0.656267	0	0	0	0	0	0	1	-360	360	0.7568	3.0402	-0.7426	-2.9805;
	4495	8335	0.176498	0.891556	0	0	0	0	0	0	1	-360	360	1.7205	1.9884	-1.7092	-1.9312;
	7762	2268	0.00067	0.00777	0	1633	0	0	0	0	1	-360	360	360.1365	204.6951	-359.0110	-191.6429;
	5155	271	0.004578	0.061889	0	0	0	0	0	0	1	-360	360	-35.8439	-10.8292	35.9043	11.6455;
	5155	2908	0.01348	0.05932	0	0	0	0	0	0	1	-360	360	-5.8926	16.2817	5.9306	-16.1144;
	4665	5155	0.066391	2.802622	0	0	0	0	0	0	1	-360	360	-0.4177	0.3055	0.4179	-0.2985;
	4495	5155	0.194258	2.220444	0	0	0	0	0	0	1	-360	360	0.0237	0.3486	-0.0235	-0.3461;
	5155	1611	0.008151	0.072822	0	0	0	0	0	0	1	-360	360	-45.2034	-15.9738	45.3797	17.5484;
	271	2908	0.016502	0.055382	0	0	0	0	0	0	1	-360	360	34.8869	21.5077	-34.6303	-20.6465;
	4665	271	0.0806	4.633778	0	0	0	0	0	0	1	-360	360	-0.7304	0.0153	0.7308	0.0076;
	4495	271	0.831556	3.729644	0	0	0	0	0	0	1	-360	360	-0.5654	0.1096	0.5679	-0.0981;
	271	1611	0.007951	0.074151	0	0	0	0	0	0	1	-360	360	-14.1851	-8.2310	14.2049	8.4157;
	1579	5848	0.0004	0.00362	0	1633	0	0	0	0	1	-360	360	-179.2627	-57.9947	179.4029	59.2631;
	7051	8847	0.00015	0.00177	0	1600	0	0	0	0	1	-360	360	315.8929	81.4073	-315.7377	-79.5757;
	5776	8229	0	0.000222	0	0	0	0	0	0	1	-360	360	0.0000	0.0000	0.0000	0.0000;
	317	6233	2e-05	0.00022	0	1698	0	0	0	0	1	-360	360	-514.7090	-142.4744	514.7606	143.0412;
	4665	2449	0.02864	0.172902	0	0	0	0	0	0	1	-360	360	-66.1557	-14.7841	67.3750	22.1452;
	2449	4495	0.017591	0.1404	0	0	0	0	0	0	1	-360	360	73.5567	31.3041	-72.6052	-23.7096;
	4665	4495	0.00752	0.031711	0	0	0	0	0	0	1	-360	360	-35.0142	9.8580	35.1064	-9.4692;
	1611	8420	0	0.000222	0	566	0	0	0	0	1	-360	360	-457.8605	-152.7905	457.8605	153.2629;
	9024	6542	0.000742	0.067219	0	0	0	0	0.994359	0	1	-360	360	122.3530	-6.9452	-122.2545	15.8657;
	9024	6542	0.000793	0.06388	0	0	0	0	0.998418	0	1	-360	360	128.1237	-14.6265	-128.0062	24.0902;
	6069	9192	0.000609	0.046809	0	711	0	0	0.933053	0	1	-360	360	187.7459	57.1232	-187.5321	-40.6903;
	6069	1968	0.00059	0.04521	0	711	0	0	0.91223	0	1	-360	360	209.1364	120.4054	-208.8370	-97.4645;
	7829	1968	0.519194	5.108058	0	0	0	0	0	0	1	-360	360	2.4054	0.6730	-2.3766	-0.3900;
	8574	2299	0.000559	0.039982	0	0	0	0	0.919523	0	1	-360	360	362.2667	153.7883	-361.5397	-101.7856;
	8574	5587	0.000537	0.045312	0	0	0	0	0.948262	0	1	-360	360	277.6066	53.2327	-277.2234	-20.9008;
	4929	1815	0.000889	0.061549	0	0	0	0	0.996867	0	1	-360	360	148.0752	1.3907	-147.9005	10.7054;
	1815	792	1.467822	7.764888	0	0	0	0	0	0	1	-360	360	0.7315	0.2001	-0.7240	-0.1602;
	6704	4586	0.000586	0.049031	0	678	0	0	0.923407	0	1	-360	360	300.7925	102.3095	-300.2916	-60.4006;
	2441	3506	0.000417	0.047801	0	678	0	0	0.952413	0	1	-360	360	238.3859	93.1971	-238.1336	-64.2725;
	1367	6826	0.000755	0.05143	0	0	0	0	0.924009	0	1	-360	360	297.4027	81.3697	-296.8176	-41.5099;
	1676	228	0.000733	0.052399	0	678	0	0	0.934986	0	1	-360	360	252.1660	67.4578	-251.7374	-36.8223;
	7829	6826	0.00078	0.064311	0	0	0	0	0	0	1	-360	360	93.3473	-24.2501	-93.2829	29.5637;
	659	3279	0.00089	0.048632	0	0	0	0	0.987002	0	1	-360	360	340.6561	86.5539	-339.6867	-33.5820;
	5210	792	0.00855	0.08972	0	0	0	0	0	0	1	-360	360	56.2930	-5.4986	-56.0366	8.1889;
	1445	792	0.00223	0.04836	0	0	0	0	0	0	1	-360	360	94.8161	-1.5139	-94.6287	5.5768;
	7180	2168	0.000581	0.043111	0	678	0	0	0.924038	0	1	-360	360	260.9462	94.0512	-260.5414	-64.0120;
	6833	8964	0.000579	0.043272	0	711	0	0	0.901005	0	1	-360	360	271.9013	156.2414	-271.4084	-119.4026;
	3659	3242	0.000586	0.049031	0	711	0	0	0.923407	0	1	-360	360	447.6914	232.7671	-446.5423	-136.6153;
	8181	4427	0.000559	0.049192	0	0	0	0	0.924009	0	1	-360	360	241.5607	115.1726	-241.2204	-85.2259;
	9025	7563	0.000573	0.051129	0	678	0	0	0.934986	0	1	-360	360	323.3160	91.3931	-322.7559	-41.4137;
	2267	5210	0.000417	0.039229	0	744	0	0	0.967059	0	1	-360	360	556.0023	161.8355	-554.7903	-47.8183;
	5210	7279	0.230542	1.197733	0	0	0	0	0	0	1	-360	360	19.8319	-1.6060	-18.9764	6.0504;
	5210	8335	0.02284	0.2644	0	0	0	0	0	0	1	-360	360	79.4110	6.6248	-78.0515	9.1123;
	5210	2449	0.08537	0.736798	0	0	0	0	0	0	1	-360	360	14.4655	-8.4672	-14.2407	10.4075;
	5210	4665	1.402768	3.640289	0	0	0	0	0	0	1	-360	360	5.2186	-1.5985	-4.8269	2.6150;
	5210	4495	1.050227	4.450207	0	0	0	0	0	0	1	-360	360	4.3393	-0.7282	-4.1487	1.5358;
	8179	7279	0.000716	0.04371	0	0	0	0	0.934986	0	1	-360	360	348.6669	107.8311	-347.8348	-57.0348;
	1445	7279	0.518622	2.317689	0	0	0	0	0	0	1	-360	360	9.9702	-1.0613	-9.4831	3.2382;
	5509	8335	0.00059	0.045662	0	0	0	0	0.955958	0	1	-360	360	217.4874	66.4738	-217.2077	-44.8247;
	5509	1531	0.000603	0.050959	0	0	0	0	0.968125	0	1	-360	360	191.2208	32.3334	-191.0076	-14.3136;
	1445	8335	0.047769	0.554178	0	0	0	0	0	0	1	-360	360	37.0645	3.3825	-36.4463	3.7896;
	7762	5155	0.000591	0.045153	0	0	0	0	0.918868	0	1	-360	360	318.3873	183.7470	-317.7272	-133.3149;
	7762	271	0.0006	0.047778	0	711	0	0	0.948976	0	1	-360	360	245.7427	67.2820	-245.3993	-39.9392;
	7829	5776	0.02436	0.270151	0	0	0	0	0	0	1	-360	360	18.6073	-6.4629	-18.5234	7.3940;
	8329	1445	0.000802	0.05727	0	0	0	0	0.967021	0	1	-360	360	191.9283	92.4073	-191.6164	-70.1299;
	8329	1445	0.000823	0.056059	0	0	0	0	0.967021	0	1	-360	360	196.1364	94.2699	-195.8023	-71.5116;
	1445	2449	0.188099	1.291901	0	0	0	0	0	0	1	-360	360	7.6903	-4.9063	-7.5441	5.9107;
	1445	4665	2.466323	7.26343	0	0	0	0	0	0	1	-360	360	2.6293	-0.6758	-2.4594	1.1759;
	2268	2908	0.000523	0.050352	0	744	0	0	0.934622	0	1	-360	360	203.9220	91.7874	-203.6903	-69.4773;
	8847	5776	0.000682	0.049638	0	0	0	0	0.913034	0	1	-360	360	276.1961	88.5927	-275.7293	-54.6139;
	8847	8103	0.00099	0.04736	0	0	0	0	1.012146	0	1	-360	360	39.3563	-9.9199	-39.3400	10.7000;
	317	2449	0.000616	0.048759	0	678	0	0	0.933053	0	1	-360	360	514.6582	140.4575	-513.2794	-31.3210;
	7637	8581	9e-05	0.015499	0	1698	0	0	0	-0.428189	1	-360	360	-1297.7080	104.0333	1299.1300	140.8500;
	5848	7526	9e-05	0.00963	0	1698	0	0	0	0.178581	1	-360	360	-179.6983	-59.6910	179.7300	63.0800;
	89	4495	0.000664	0.045609	0	0	0	0	0.924009	0	1	-360	360	268.0685	110.7248	-267.5903	-77.8782;
	2520	4665	0.000649	0.044862	0	711	0	0	0.933053	0	1	-360	360	291.1749	90.5311	-290.6493	-54.1976;
	5996	8420	0.00067	0.04326	0	744	0	0	0.923407	0	1	-360	360	459.2864	245.3273	-457.8605	-153.2629;
	2154	5996	9e-05	0.009901	0	1698	0	0	0	-0.153178	1	-360	360	357.1374	-39.0871	-357.0296	50.9415;
];

%%-----  OPF Data  -----%%
%% generator cost data
%	1	startup	shutdown	n	x1	y1	...	xn	yn
%	2	startup	shutdown	n	c(n-1)	...	c0
mpc.gencost = [
	2	0	0	3	0	1	0;
	2	0	0	3	0	1	0;
	2	0	0	3	0	1	0;
	2	0	0	3	0	1	0;
	2	0	0	3	0	1	0;
	2	0	0	3	0	1	0;
	2	0	0	3	0	1	0;
	2	0	0	3	0	1	0;
	2	0	0	3	0	1	0;
	2	0	0	3	0	1	0;
	2	0	0	3	0	1	0;
	2	0	0	3	0	1	0;
];
