function mpc = case2736sp_res
%CASE2736SP_RES

%% MATPOWER Case Format : Version 2
mpc.version = '2';

%%-----  Power Flow Data  -----%%
%% system MVA base
mpc.baseMVA = 100;

%% bus data
%	bus_i	type	Pd	Qd	Gs	Bs	area	Vm	Va	baseKV	zone	Vmax	Vmin	lam_P	lam_Q	mu_Vmax	mu_Vmin
mpc.bus = [
	1	1	0	0	0	0	1	1.08125346	36.8853534	220	1	1.11	0.95	97.9642	0.1737	0.0000	0.0000;
	2	1	0	0	0	0	1	1.08546133	38.6783845	220	1	1.11	0.95	97.5886	0.0592	0.0000	0.0000;
	3	1	0	0	0	0	1	1.06177875	12.6424648	220	1	1.11	0.95	110.9086	0.1409	0.0000	0.0000;
	4	1	0	0	0	0	1	1.07016742	32.5804409	220	1	1.11	0.95	100.0063	0.4639	0.0000	0.0000;
	5	1	0	0	0	0	1	1.07019846	32.5796157	220	1	1.11	0.95	100.0073	0.4634	0.0000	0.0000;
	6	1	0	0	0	0	1	1.04616829	21.1800432	220	1	1.11	0.95	104.7833	0.8183	0.0000	0.0000;
	7	1	0	0	0	0	1	1.04629446	21.1897692	220	1	1.11	0.95	104.7745	0.8156	0.0000	0.0000;
	8	1	0	0	0	0	1	1.00993351	25.0329749	400	1	1.05	0.95	103.5752	0.3513	0.0000	0.0000;
	9	1	0	0	0	0	1	1.00995948	25.0379271	400	1	1.05	0.95	103.5718	0.3500	0.0000	0.0000;
	10	1	0	0	0	0	1	1.03938715	21.1683941	220	1	1.11	0.95	105.6057	1.0277	0.0000	0.0000;
	11	1	0	0	0	0	1	1.03927223	21.1623635	220	1	1.11	0.95	105.6080	1.0297	0.0000	0.0000;
	12	1	0	0	0	0	1	1.03918886	21.1673616	220	1	1.11	0.95	105.6066	1.0315	0.0000	0.0000;
	13	1	0	0	0	0	1	1.03914087	21.1573524	220	1	1.11	0.95	105.6077	1.0320	0.0000	0.0000;
	14	1	0	0	0	0	1	1.00072748	26.4529844	400	1	1.05	0.95	102.9672	0.6071	0.0000	0.0000;
	15	1	0	0	0	0	1	1.01467483	22.2168723	400	1	1.05	0.95	104.4832	0.0632	0.0000	0.0000;
	16	1	0	0	0	0	1	1.01467483	22.2168723	400	1	1.05	0.95	104.4832	0.0632	0.0000	0.0000;
	17	2	0	0	0	0	1	1.07106	15.625766	220	1	1.11	0.95	108.4499	0.1084	0.0000	0.0000;
	18	1	0	0	0	0	1	1.07112615	15.6256281	220	1	1.11	0.95	108.4483	0.1077	0.0000	0.0000;
	19	1	0	0	0	0	1	1.07524493	33.6238675	220	1	1.11	0.95	99.4431	0.3577	0.0000	0.0000;
	20	1	0	0	0	0	1	1.07529202	33.6268567	220	1	1.11	0.95	99.4429	0.3572	0.0000	0.0000;
	21	1	0	0	0	0	1	1.05540282	20.3050051	220	1	1.11	0.95	105.9001	0.5847	0.0000	0.0000;
	22	1	0	0	0	0	1	1.05540282	20.3050051	220	1	1.11	0.95	105.9001	0.5847	0.0000	0.0000;
	23	1	0	0	0	0	1	1.03847214	21.1571612	220	1	1.11	0.95	105.5971	1.0403	0.0000	0.0000;
	24	1	0	0	0	0	1	1.0772279	35.3719896	220	1	1.11	0.95	98.8433	0.2741	0.0000	0.0000;
	25	1	0	0	0	0	1	1.0120845	24.2188138	400	1	1.05	0.95	103.8800	0.3703	0.0000	0.0000;
	26	2	61.358	72.054	0	0	1	1.09091	37.2248119	220	1	1.11	0.95	97.7882	0.0000	1044.8801	0.0000;
	27	2	84.861	122.06	0	0	1	1.09091	38.9693143	220	1	1.11	0.95	97.4519	0.0000	1601.4174	0.0000;
	28	3	49	74	0	0	1	1.02665	36.029099	400	1	1.05	0.95	98.6073	-0.0008	0.0000	0.0000;
	29	2	49	74	0	0	1	1.02665	36.0352348	400	1	1.05	0.95	98.6040	-0.0000	0.0000	0.0000;
	30	1	0	0	0	0	1	1.04529745	20.8843109	220	1	1.11	0.95	105.6749	0.8355	0.0000	0.0000;
	31	1	0	0	0	0	1	1.02623276	34.534909	400	1	1.05	0.95	98.8892	-0.0693	0.0000	0.0000;
	32	1	0	0	0	0	1	1.03601095	20.842617	220	1	1.11	0.95	105.8196	1.0971	0.0000	0.0000;
	33	1	0	0	0	0	1	1.07745681	30.248611	220	1	1.11	0.95	100.8633	0.2948	0.0000	0.0000;
	34	1	0	0	0	0	1	1.07533448	26.8232827	220	2	1.11	0.95	101.9122	-0.3204	0.0000	0.0000;
	35	1	0	0	0	0	1	1.07722706	27.2815104	220	2	1.11	0.95	102.0744	-0.6743	0.0000	0.0000;
	36	1	0	0	0	0	1	1.08613097	28.2402594	220	2	1.11	0.95	101.3876	-0.8651	0.0000	0.0000;
	37	1	0	0	0	0	1	1.08611848	28.2383499	220	2	1.11	0.95	101.3886	-0.8649	0.0000	0.0000;
	38	1	0	0	0	0	1	1.06287828	25.5874127	220	2	1.11	0.95	102.7618	-0.4427	0.0000	0.0000;
	39	1	0	0	0	0	1	1.10336057	28.6411155	220	2	1.11	0.95	101.1082	-3.0865	18045.9803	0.0000;
	40	1	0	0	0	0	1	1.10324822	28.6415778	220	2	1.11	0.95	101.1098	-3.0744	0.0000	0.0000;
	41	1	0	0	0	0	1	1.01847761	28.8405687	400	2	1.05	0.95	101.1345	-2.0956	0.0000	0.0000;
	42	2	25	0	0	0	1	1.09091	27.3456633	220	2	1.11	0.95	101.8427	-0.1316	0.0000	0.0000;
	43	2	26	0	0	0	1	1.09091	27.3637465	220	2	1.11	0.95	101.8368	-0.1325	0.0000	0.0000;
	44	2	25	0	0	0	1	1.01857	27.8650928	400	2	1.05	0.95	102.0500	-0.0378	0.0000	0.0000;
	45	1	0	0	0	0	1	1.01855147	27.8619586	400	2	1.05	0.95	102.0499	-0.0374	0.0000	0.0000;
	46	1	0	0	0	0	1	1.09989869	28.1386446	220	2	1.11	0.95	101.4510	-2.8780	0.0000	0.0000;
	47	1	0	0	0	0	1	1.03199425	25.4737095	400	2	1.05	0.95	102.2308	-0.8351	0.0000	0.0000;
	48	1	0	0	0	0	1	1.03196384	25.4678655	400	2	1.05	0.95	102.2336	-0.8342	0.0000	0.0000;
	49	1	0	0	0	0	1	1.02595392	27.3363253	400	2	1.05	0.95	102.0681	-0.1569	0.0000	0.0000;
	50	1	0	0	0	0	1	1.07150003	26.647604	220	2	1.11	0.95	102.0731	-0.4925	0.0000	0.0000;
	51	1	0	0	0	0	1	1.07147915	26.6504287	220	2	1.11	0.95	102.0731	-0.4924	0.0000	0.0000;
	52	1	0	0	0	0	1	1.03222432	28.0793378	400	2	1.05	0.95	101.6773	-0.7629	0.0000	0.0000;
	53	1	0	0	0	0	1	1.03225373	28.0814392	400	2	1.05	0.95	101.6757	-0.7648	0.0000	0.0000;
	54	2	13	0	0	0	1	1.09116	29.2594144	220	2	1.11	0.95	100.9266	-1.0086	0.0000	0.0000;
	55	2	13	0	0	0	1	1.09114	29.2558686	220	2	1.11	0.95	100.9250	-1.0101	0.0000	0.0000;
	56	2	13	0	0	0	1	1.04039	29.0110334	400	2	1.05	0.95	101.1741	-1.1458	0.0000	0.0000;
	57	2	26	0	0	0	1	1.04036	29.0074767	400	2	1.05	0.95	101.1759	-1.1461	0.0000	0.0000;
	58	2	89.067	40	0	0	1	1.08754	26.9059564	220	2	1.11	0.95	102.0281	-0.2262	0.0000	0.0000;
	59	1	0	0	0	0	1	1.08752075	26.9077088	220	2	1.11	0.95	102.0268	-0.2267	0.0000	0.0000;
	60	1	0	0	0	0	1	1.09609521	28.0603476	220	2	1.11	0.95	101.4486	-2.4534	0.0000	0.0000;
	61	1	0	0	0	0	1	1.09049592	26.9203105	220	2	1.11	0.95	102.1670	-0.6982	0.0000	0.0000;
	62	1	0	0	0	0	1	1.09047502	26.9173476	220	2	1.11	0.95	102.1674	-0.6941	0.0000	0.0000;
	63	1	0	0	0	0	1	1.04289749	27.9292993	400	2	1.05	0.95	101.4167	-1.0744	0.0000	0.0000;
	64	1	0	0	0	0	1	1.04284829	27.9176153	400	2	1.05	0.95	101.4211	-1.0730	0.0000	0.0000;
	65	1	0	0	0	0	1	1.07941188	27.1554995	220	2	1.11	0.95	101.8675	-0.6568	0.0000	0.0000;
	66	1	0	0	0	0	1	1.08092315	27.3215833	220	2	1.11	0.95	101.7568	-0.6842	0.0000	0.0000;
	67	1	0	0	0	0	1	1.07214542	27.3693865	220	2	1.11	0.95	101.7225	-0.4651	0.0000	0.0000;
	68	1	0	0	0	0	1	1.08698905	32.4503527	220	3	1.11	0.95	99.8077	-0.3688	0.0000	0.0000;
	69	1	10.327	0	0	0	1	1.09189601	28.9772388	220	3	1.11	0.95	101.2532	-0.5368	0.0000	0.0000;
	70	1	8.032	3.714	0	0	1	1.0917407	28.9841869	220	3	1.11	0.95	101.2506	-0.5330	0.0000	0.0000;
	71	1	0	0	0	0	1	1.08619188	32.1688386	220	3	1.11	0.95	99.5961	0.0929	0.0000	0.0000;
	72	1	0	0	0	0	1	1.08624998	32.1808241	220	3	1.11	0.95	99.5928	0.0917	0.0000	0.0000;
	73	1	0	0	0	0	1	1.08712237	31.8564698	220	3	1.11	0.95	99.7104	0.0192	0.0000	0.0000;
	74	1	0	0	0	0	1	1.08709996	31.8515922	220	3	1.11	0.95	99.7113	0.0193	0.0000	0.0000;
	75	1	0	0	0	0	1	1.08384882	30.5718825	220	3	1.11	0.95	100.6839	0.1752	0.0000	0.0000;
	76	1	0	0	0	0	1	1.08372761	30.5647096	220	3	1.11	0.95	100.6881	0.1774	0.0000	0.0000;
	77	2	27	70	0	0	1	1.09091	32.9847937	220	3	1.11	0.95	99.2188	0.0000	0.0000	0.0000;
	78	2	18.7	42	0	0	1	1.09091	33.0098492	220	3	1.11	0.95	99.2865	0.0000	0.0000	0.0000;
	79	1	4.934	0.817	0	0	1	1.07984886	31.6799072	220	3	1.11	0.95	100.0821	0.2170	0.0000	0.0000;
	80	1	0	0	0	0	1	1.07986253	31.6810842	220	3	1.11	0.95	100.0813	0.2168	0.0000	0.0000;
	81	2	18	57	0	0	1	1.02168	31.9851712	400	3	1.05	0.95	99.4311	-0.0467	0.0000	0.0000;
	82	1	0	0	0	0	1	1.08265832	30.9064358	220	3	1.11	0.95	99.9377	-0.6237	0.0000	0.0000;
	83	1	0	0	0	0	1	1.08749189	31.367232	220	3	1.11	0.95	100.0804	0.0223	0.0000	0.0000;
	84	1	0	0	0	0	1	1.08749725	31.3723624	220	3	1.11	0.95	100.0786	0.0222	0.0000	0.0000;
	85	1	44.864	-6.4	0	0	1	1.08837496	32.432599	220	3	1.11	0.95	99.7311	-0.3991	0.0000	0.0000;
	86	1	0	0	0	0	1	1.08835892	32.4271669	220	3	1.11	0.95	99.7331	-0.3985	0.0000	0.0000;
	87	1	0	0	0	0	1	1.08393865	31.6609547	220	3	1.11	0.95	99.8837	0.1014	0.0000	0.0000;
	88	1	0	0	0	0	1	1.08391622	31.6667435	220	3	1.11	0.95	99.8819	0.1022	0.0000	0.0000;
	89	1	0	0	0	0	1	1.08925883	32.9030693	220	3	1.11	0.95	99.5000	-0.4139	0.0000	0.0000;
	90	1	0	0	0	0	1	1.08926067	32.8984726	220	3	1.11	0.95	99.5022	-0.4161	0.0000	0.0000;
	91	1	0	0	0	0	1	1.03155917	34.1166619	400	3	1.05	0.95	99.2147	-0.2518	0.0000	0.0000;
	92	1	0	0	0	0	1	1.03155704	34.1148384	400	3	1.05	0.95	99.2150	-0.2518	0.0000	0.0000;
	93	1	0	0	0	0	1	1.08489194	31.2451327	220	3	1.11	0.95	100.0665	0.0637	0.0000	0.0000;
	94	1	0	0	0	0	1	1.08489277	31.2405639	220	3	1.11	0.95	100.0682	0.0640	0.0000	0.0000;
	95	1	0	0	0	0	1	1.08471898	31.4480265	220	3	1.11	0.95	100.0032	-0.1863	0.0000	0.0000;
	96	1	0	0	0	0	1	1.08471774	31.4452967	220	3	1.11	0.95	100.0027	-0.1888	0.0000	0.0000;
	97	2	12.49	3.696	0	0	1	1.08955	32.2467052	220	3	1.11	0.95	99.6560	-0.2413	0.0000	0.0000;
	98	1	17.327	6.126	0	0	1	1.08953803	32.2400197	220	3	1.11	0.95	99.6584	-0.2434	0.0000	0.0000;
	99	1	0	0	0	0	1	1.09194505	29.0017719	220	3	1.11	0.95	101.2403	-0.5372	0.0000	0.0000;
	100	1	0	0	0	0	1	1.09195107	29.0015995	220	3	1.11	0.95	101.2400	-0.5362	0.0000	0.0000;
	101	1	0	0	0	0	1	1.07668442	30.1913686	220	3	1.11	0.95	100.9840	0.3400	0.0000	0.0000;
	102	1	0	0	0	0	1	1.07664995	30.1917317	220	3	1.11	0.95	100.9833	0.3405	0.0000	0.0000;
	103	2	14	40	0	0	1	1.08905	31.3430635	220	3	1.11	0.95	100.1083	0.0000	0.0000	0.0000;
	104	2	0	0	0	0	1	1.08898676	31.3154225	220	3	1.11	0.95	100.1174	0.0013	0.0000	0.0000;
	105	2	7	18	0	0	1	1.0875	31.7308377	220	3	1.11	0.95	99.8094	0.0000	0.0000	0.0000;
	106	2	0	0	0	0	1	1.08740155	31.7286144	220	3	1.11	0.95	99.8116	0.0000	0.0000	0.0000;
	107	1	0	13.892	0	0	1	1.08908256	31.6831831	220	3	1.11	0.95	99.9190	-0.5043	0.0000	0.0000;
	108	1	73.779	8.097	0	0	1	1.08911314	31.6732509	220	3	1.11	0.95	99.9214	-0.5078	0.0000	0.0000;
	109	1	0	0	0	0	1	1.082786	30.9318186	220	3	1.11	0.95	100.6245	0.0315	0.0000	0.0000;
	110	1	0	0	0	0	1	1.07593888	31.5657193	220	3	1.11	0.95	100.2389	0.3415	0.0000	0.0000;
	111	1	0	0	0	0	1	1.07596426	31.5663303	220	3	1.11	0.95	100.2383	0.3411	0.0000	0.0000;
	112	1	0	0	0	0	1	1.08070181	31.7635644	220	3	1.11	0.95	100.0151	0.1993	0.0000	0.0000;
	113	1	0	0	0	0	1	1.08076906	31.7728148	220	3	1.11	0.95	100.0113	0.1982	0.0000	0.0000;
	114	1	0	0	0	0	1	1.0305896	31.0905562	400	3	1.05	0.95	100.0335	-0.6552	0.0000	0.0000;
	115	2	0	0	0	0	1	1.08993315	32.6412394	220	3	1.11	0.95	99.3961	-0.0492	0.0000	0.0000;
	116	2	8	15	0	0	1	1.08992	32.6439634	220	3	1.11	0.95	99.3969	-0.0498	0.0000	0.0000;
	117	2	5.5	10	0	0	1	1.08788	31.7509164	220	3	1.11	0.95	100.0549	-0.0505	0.0000	0.0000;
	118	1	0	0	0	0	1	1.08790199	31.7417914	220	3	1.11	0.95	100.0569	-0.0515	0.0000	0.0000;
	119	1	0	0	0	0	1	1.04362969	28.7631329	400	3	1.05	0.95	101.1591	-1.1087	0.0000	0.0000;
	120	1	0	0	0	0	1	1.04365958	28.7680423	400	3	1.05	0.95	101.1569	-1.1097	0.0000	0.0000;
	121	1	0	0	0	0	1	1.03913832	31.2557656	400	3	1.05	0.95	99.9752	-1.1326	0.0000	0.0000;
	122	1	0	0	0	0	1	1.03915078	31.261116	400	3	1.05	0.95	99.9734	-1.1353	8588.8847	0.0000;
	123	1	0	0	0	0	1	1.08203376	30.8656179	220	3	1.11	0.95	100.7429	0.0437	0.0000	0.0000;
	124	2	11	17.5	0	0	1	1.09093	32.8068016	220	3	1.11	0.95	99.3793	-0.0039	0.0000	0.0000;
	125	2	41.353	61.2	0	0	1	1.09091	32.8240122	220	3	1.11	0.95	99.3738	0.0000	0.0000	0.0000;
	126	2	14	33	0	0	1	1.02511	31.5018631	400	3	1.05	0.95	99.7881	-0.2925	0.0000	0.0000;
	127	1	0	0	0	0	1	1.02510748	31.5023281	400	3	1.05	0.95	99.7881	-0.2933	0.0000	0.0000;
	128	1	0	0	0	0	1	1.0879455	32.3195615	220	3	1.11	0.95	99.7900	-0.3859	0.0000	0.0000;
	129	1	0	0	0	0	1	1.08792734	32.3217155	220	3	1.11	0.95	99.7883	-0.3854	0.0000	0.0000;
	130	1	0	0	0	0	1	1.08851222	32.5494172	220	3	1.11	0.95	99.6716	-0.3775	0.0000	0.0000;
	131	2	1.5	9	0	0	1	1.08591	30.9390033	220	3	1.11	0.95	100.5080	0.1314	0.0000	0.0000;
	132	2	0	0	0	0	1	1.08375976	30.5644797	220	3	1.11	0.95	100.6881	0.1766	0.0000	0.0000;
	133	2	11.215	8.3	0	0	1	1.09091	29.1197084	220	4	1.11	0.95	101.2167	0.0000	1024.1353	0.0000;
	134	2	10.333	7.7	0	0	1	1.09091	29.1165196	220	4	1.11	0.95	101.2175	0.0022	0.0000	0.0000;
	135	1	0	0	0	0	1	1.08086977	24.5720299	220	4	1.11	0.95	100.9562	-2.0325	0.0000	0.0000;
	136	1	0	0	0	0	1	1.08436932	25.4035566	220	4	1.11	0.95	100.8377	-1.3233	0.0000	0.0000;
	137	1	0	0	0	0	1	0.999554466	25.2396732	400	4	1.05	0.95	101.9525	0.0152	0.0000	0.0000;
	138	1	0	0	0	0	1	0.999565261	25.2397974	400	4	1.05	0.95	101.9534	0.0152	0.0000	0.0000;
	139	1	0	0	0	0	1	1.07542507	17.9545936	220	4	1.11	0.95	108.0210	0.2680	0.0000	0.0000;
	140	1	0	0	0	0	1	1.07491667	13.4014929	220	4	1.11	0.95	110.4893	0.1754	0.0000	0.0000;
	141	1	0	0	0	0	1	1.07491667	13.4014929	220	4	1.11	0.95	110.4893	0.1754	0.0000	0.0000;
	142	1	0	0	0	0	1	1.07872184	15.4472335	220	4	1.11	0.95	108.7946	0.2311	0.0000	0.0000;
	143	1	0	0	0	0	1	1.07402988	23.2862502	220	4	1.11	0.95	101.6440	-1.1967	0.0000	0.0000;
	144	1	0	0	0	0	1	1.07402988	23.2862502	220	4	1.11	0.95	101.6440	-1.1967	0.0000	0.0000;
	145	2	0	0	0	0	1	1.08964948	25.639444	220	4	1.11	0.95	103.0118	0.0224	0.0000	0.0000;
	146	2	0	0	0	0	1	1.08964227	25.6386583	220	4	1.11	0.95	103.0087	0.0234	0.0000	0.0000;
	147	2	25.553	12.9	0	0	1	1.08582	15.8142998	220	4	1.11	0.95	108.8237	0.0000	137.4001	0.0000;
	148	1	0	0	0	0	1	1.08579905	15.8185919	220	4	1.11	0.95	108.8222	0.0012	0.0000	0.0000;
	149	2	11	12	0	0	1	1.02501	17.0547168	400	4	1.05	0.95	108.5541	-0.1626	0.0000	0.0000;
	150	2	11.922	13.7	0	0	1	1.025	17.0560041	400	4	1.05	0.95	108.5538	-0.1620	0.0000	0.0000;
	151	1	0	0	0	0	1	1.05535241	17.5184384	220	4	1.11	0.95	108.6543	0.9181	0.0000	0.0000;
	152	1	0	0	0	0	1	1.08100127	19.846898	220	4	1.11	0.95	105.8110	0.2418	0.0000	0.0000;
	153	1	0	0	0	0	1	1.080981	19.8420918	220	4	1.11	0.95	105.8119	0.2429	0.0000	0.0000;
	154	2	19.475	64.3	0	0	1	1.09091	27.5424804	220	4	1.11	0.95	100.2380	-0.0784	0.0000	0.0000;
	155	2	16	33	0	0	1	1.09091	27.5343916	220	4	1.11	0.95	100.2439	-0.0748	0.0000	0.0000;
	156	1	0	0	0	0	1	1.00077893	27.1242104	400	4	1.05	0.95	100.5569	-0.0001	0.0000	0.0000;
	157	2	10	25	0	0	1	1.00076	27.1300135	400	4	1.05	0.95	100.5542	0.0000	0.0000	0.0000;
	158	1	0	0	0	0	1	1.07395941	13.4410198	220	4	1.11	0.95	110.3861	0.1678	0.0000	0.0000;
	159	1	0	0	0	0	1	1.07395941	13.4410198	220	4	1.11	0.95	110.3861	0.1678	0.0000	0.0000;
	160	1	0	0	0	0	1	1.00348886	25.2496076	400	4	1.05	0.95	101.9142	0.0037	0.0000	0.0000;
	161	1	0	0	0	0	1	1.00660989	26.4008425	400	4	1.05	0.95	101.4418	-0.0330	0.0000	0.0000;
	162	1	0	0	0	0	1	1.00659827	26.3965854	400	4	1.05	0.95	101.4436	-0.0331	0.0000	0.0000;
	163	2	5.54	2.93	0	0	1	1.09091	25.48585	220	4	1.11	0.95	103.0649	0.0000	332.7039	0.0000;
	164	2	18.255	11.5	0	0	1	1.09091	25.4775982	220	4	1.11	0.95	103.0713	0.0000	1279.9799	0.0000;
	165	1	0	0	0	0	1	1.09091	25.4775982	220	4	1.11	0.95	103.0713	0.0000	0.0000	0.0000;
	166	1	0	0	0	0	1	1.07369393	13.4978966	220	4	1.11	0.95	110.8567	0.0398	0.0000	0.0000;
	167	1	0	0	0	0	1	1.07403974	13.2658671	220	4	1.11	0.95	110.5522	0.1850	0.0000	0.0000;
	168	1	0	0	0	0	1	1.07537869	16.6674606	220	4	1.11	0.95	108.8217	0.1748	0.0000	0.0000;
	169	1	0	0	0	0	1	1.07536861	16.6591051	220	4	1.11	0.95	108.8244	0.1745	0.0000	0.0000;
	170	1	0	0	0	0	1	1.01049448	16.1030566	400	4	1.05	0.95	108.9582	0.2096	0.0000	0.0000;
	171	1	0	0	0	0	1	1.01049448	16.1030566	400	4	1.05	0.95	108.9582	0.2096	0.0000	0.0000;
	172	1	0	0	0	0	1	1.05926567	20.196117	220	4	1.11	0.95	106.2796	0.8193	0.0000	0.0000;
	173	1	0	0	0	0	1	1.05926359	20.2024476	220	4	1.11	0.95	106.2773	0.8197	0.0000	0.0000;
	174	1	0	0	0	0	1	1.06946601	20.3289624	220	4	1.11	0.95	105.2017	0.4016	0.0000	0.0000;
	175	1	0	0	0	0	1	1.07964628	24.8333104	220	4	1.11	0.95	100.9532	-1.9153	0.0000	0.0000;
	176	1	0	0	0	0	1	1.07964964	24.8424729	220	4	1.11	0.95	100.9503	-1.9197	0.0000	0.0000;
	177	1	0	0	0	0	1	1.0791479	26.1729161	220	4	1.11	0.95	100.4934	-2.2064	0.0000	0.0000;
	178	1	0	0	0	0	1	1.0791479	26.1729161	220	4	1.11	0.95	100.4934	-2.2064	0.0000	0.0000;
	179	2	3.13	1.5	0	0	1	1.09091	21.1505338	220	4	1.11	0.95	105.1553	0.0000	0.0000	0.0000;
	180	1	0	0	0	0	1	1.05675603	19.2340409	220	4	1.11	0.95	106.7210	0.8008	0.0000	0.0000;
	181	1	0	0	0	0	1	1.05269222	18.2071635	220	5	1.11	0.95	107.4384	0.2064	0.0000	0.0000;
	182	1	0	0	0	0	1	1.08321889	15.1743831	220	5	1.11	0.95	108.8386	-0.4811	0.0000	0.0000;
	183	1	0	0	0	0	1	1.03005069	16.2699072	400	5	1.05	0.95	108.4907	-0.4744	0.0000	0.0000;
	184	1	0	0	0	0	1	1.03007056	16.2683448	400	5	1.05	0.95	108.4921	-0.4746	0.0000	0.0000;
	185	1	0	0	0	0	1	1.01924321	17.9441212	400	5	1.05	0.95	107.5507	0.1630	0.0000	0.0000;
	186	1	0	0	0	0	1	1.0192642	17.941238	400	5	1.05	0.95	107.5529	0.1627	0.0000	0.0000;
	187	1	0	0	0	0	1	1.06383727	14.3568313	220	5	1.11	0.95	109.3264	0.2353	0.0000	0.0000;
	188	1	0	0	0	0	1	1.06388468	14.3547728	220	5	1.11	0.95	109.3271	0.2342	0.0000	0.0000;
	189	1	0	0	0	0	1	1.0547376	18.5681669	220	5	1.11	0.95	107.5941	0.3848	0.0000	0.0000;
	190	1	0	0	0	0	1	1.05469835	18.560342	220	5	1.11	0.95	107.5949	0.3844	0.0000	0.0000;
	191	1	0	0	0	0	1	0.999192494	18.7317732	400	5	1.05	0.95	106.7351	0.4434	0.0000	0.0000;
	192	1	0	0	0	0	1	1.05681789	18.9104449	220	5	1.11	0.95	107.1996	0.2301	0.0000	0.0000;
	193	1	0	0	0	0	1	1.05679367	18.9166493	220	5	1.11	0.95	107.1982	0.2309	0.0000	0.0000;
	194	1	0	0	0	0	1	1.01723192	16.3369618	400	5	1.05	0.95	108.4815	0.3003	0.0000	0.0000;
	195	1	0	0	0	0	1	1.01720593	16.3329823	400	5	1.05	0.95	108.4841	0.3010	0.0000	0.0000;
	196	1	0	0	0	0	1	1.05138275	13.9120248	220	5	1.11	0.95	109.8816	0.5588	0.0000	0.0000;
	197	1	0	0	0	0	1	1.05140149	13.9109644	220	5	1.11	0.95	109.8811	0.5586	0.0000	0.0000;
	198	1	0	0	0	-117	1	1.02206075	17.2288674	400	5	1.05	0.95	107.8538	-0.3758	0.0000	0.0000;
	199	1	0	0	0	0	1	1.02210505	17.2248578	400	5	1.05	0.95	107.8567	-0.3766	0.0000	0.0000;
	200	1	0	0	0	0	1	1.04685029	17.4382367	220	5	1.11	0.95	108.4342	0.6220	0.0000	0.0000;
	201	1	0	0	0	0	1	1.04683552	17.4382754	220	5	1.11	0.95	108.4350	0.6227	0.0000	0.0000;
	202	1	0	0	0	0	1	1.04980071	18.4073342	220	5	1.11	0.95	107.9103	0.7152	0.0000	0.0000;
	203	1	0	0	0	0	1	1.04974484	18.3973279	220	5	1.11	0.95	107.9148	0.7153	0.0000	0.0000;
	204	2	0	0	0	0	1	1.025	19.2875177	400	5	1.05	0.95	107.0336	-0.0006	0.0000	0.0000;
	205	2	0	0	0	0	1	1.025	19.2882208	400	5	1.05	0.95	107.0337	0.0000	0.0000	0.0000;
	206	1	0	0	0	0	1	1.07937745	13.8144123	220	5	1.11	0.95	109.8891	-0.5288	0.0000	0.0000;
	207	1	0	0	0	0	1	1.07938648	13.8184631	220	5	1.11	0.95	109.8857	-0.5291	0.0000	0.0000;
	208	1	9.59	1	0	0	1	1.06849443	17.2622836	110	1	1.12	0.95	108.3381	0.2777	0.0000	0.0000;
	209	1	4.795	0.5	0	0	1	1.05191822	9.0102726	110	1	1.12	0.95	114.9045	0.2246	0.0000	0.0000;
	210	1	4.262	2	0	0	1	1.07097404	18.1531348	110	1	1.12	0.95	105.4624	1.1041	0.0000	0.0000;
	211	1	6.5	5.4	0	0	1	1.04150574	16.5254595	110	1	1.12	0.95	108.9990	2.0787	0.0000	0.0000;
	212	1	2.877	0.6	0	0	1	1.06369038	35.9643051	110	1	1.12	0.95	98.3759	0.1886	0.0000	0.0000;
	213	1	3.197	0.3	0	0	1	1.07246211	34.3183517	110	1	1.12	0.95	98.4292	0.2878	0.0000	0.0000;
	214	2	21.711	12.3	0	0	1	1.09209	16.9066593	110	1	1.12	0.95	106.3528	0.0000	0.0000	0.0000;
	215	1	12.254	2	0	0	1	1.09332851	17.1675406	110	1	1.12	0.95	106.0357	-0.0057	0.0000	0.0000;
	216	1	6.926	2	0	0	1	1.09282603	17.0851327	110	1	1.12	0.95	106.1331	0.0014	0.0000	0.0000;
	217	1	10.655	1.5	0	0	1	1.09158496	16.7807134	110	1	1.12	0.95	106.4693	0.0065	0.0000	0.0000;
	218	1	7.672	3	0	0	1	1.05741441	16.8900455	110	1	1.12	0.95	107.8823	1.4420	0.0000	0.0000;
	219	1	8.524	2	0	0	1	1.05581009	16.489379	110	1	1.12	0.95	107.7625	1.3996	0.0000	0.0000;
	220	2	0	0	0	0	1	1.08853	20.330645	110	1	1.12	0.95	102.9820	-0.0000	0.0000	0.0000;
	221	2	6.606	2.1	0	0	1	1.07119	28.8243083	110	1	1.12	0.95	102.1784	0.1191	0.0000	0.0000;
	222	1	8.099	1.5	0	0	1	1.06747743	17.485612	110	1	1.12	0.95	106.3238	1.0409	0.0000	0.0000;
	223	1	0.746	0.1	0	0	1	1.0524621	34.3334586	110	1	1.12	0.95	99.7831	0.4544	0.0000	0.0000;
	224	1	3.943	0.2	0	0	1	1.07786261	16.79911	110	1	1.12	0.95	106.6097	0.3462	0.0000	0.0000;
	225	1	3.197	0.5	0	0	1	1.06979468	12.2829008	110	1	1.12	0.95	111.3766	0.0711	0.0000	0.0000;
	226	1	12.787	1	0	0	1	1.08359816	17.0627501	110	1	1.12	0.95	107.3093	-0.0552	0.0000	0.0000;
	227	1	4.475	0.7	0	0	1	1.06849391	17.302924	110	1	1.12	0.95	106.4583	0.9337	0.0000	0.0000;
	228	1	4.262	0.7	0	0	1	1.06853329	17.3106379	110	1	1.12	0.95	106.4553	0.9331	0.0000	0.0000;
	229	1	2.451	0.98	0	0	1	1.08308112	29.34083	110	1	1.12	0.95	100.9712	0.2943	0.0000	0.0000;
	230	1	2.451	0.98	0	0	1	1.06070532	27.6734392	110	1	1.12	0.95	102.6728	0.7299	0.0000	0.0000;
	231	1	5.327	1	0	0	1	1.0596107	17.2162916	110	1	1.12	0.95	106.8773	1.2828	0.0000	0.0000;
	232	1	4.262	1	0	0	1	1.07268169	34.3688418	110	1	1.12	0.95	98.3785	0.2918	0.0000	0.0000;
	233	1	9.057	0.4	0	0	1	1.06276579	26.2985171	110	1	1.12	0.95	102.9378	-0.4753	0.0000	0.0000;
	234	1	31.966	28.001	0	0	1	1.05068186	35.0832651	110	1	1.12	0.95	98.3864	0.5689	0.0000	0.0000;
	235	1	5.86	0.8	0	0	1	1.06030254	14.1317825	110	1	1.12	0.95	110.1179	0.4119	0.0000	0.0000;
	236	1	8.631	2.94	0	0	1	1.08172381	29.7405746	110	1	1.12	0.95	100.2155	0.5540	0.0000	0.0000;
	237	1	5.967	0.2	0	0	1	1.05990181	14.0303565	110	1	1.12	0.95	110.2606	0.4057	0.0000	0.0000;
	238	1	5.328	0.5	0	0	1	1.07253626	15.1731647	110	1	1.12	0.95	109.1243	0.2496	0.0000	0.0000;
	239	2	0	0	0	0	1	1.05821	15.7658622	110	1	1.12	0.95	108.7679	1.0653	0.0000	0.0000;
	240	1	12.04	1	0	0	1	1.05998781	13.3420139	110	1	1.12	0.95	110.3373	0.7135	0.0000	0.0000;
	241	1	3.836	1.18	0	0	1	1.06862655	28.452826	110	1	1.12	0.95	101.6194	0.6764	0.0000	0.0000;
	242	1	3.729	0.4	0	0	1	1.0956156	31.4380125	110	1	1.12	0.95	98.9178	-0.2346	0.0000	0.0000;
	243	1	3.729	0.4	0	0	1	1.09567769	31.4518071	110	1	1.12	0.95	98.9136	-0.2315	0.0000	0.0000;
	244	1	2.131	1.1	0	0	1	1.08966876	16.6548529	110	1	1.12	0.95	107.7712	0.0149	0.0000	0.0000;
	245	1	0	0	0	0	1	1.06652415	37.0835697	110	1	1.12	0.95	97.6738	0.0465	0.0000	0.0000;
	246	2	0	5	0	0	1	1.03937	40.5525239	22	1	1.12	0.95	97.9055	-0.0000	0.0000	0.0000;
	247	1	7.458	1	0	0	1	1.06503981	11.0119334	110	1	1.12	0.95	112.6771	0.1192	0.0000	0.0000;
	248	1	2.131	0	0	0	1	1.06493988	10.8536595	110	1	1.12	0.95	111.5455	0.2852	0.0000	0.0000;
	249	1	2.131	0	0	0	1	1.07229916	11.8640216	110	1	1.12	0.95	111.3188	0.0353	0.0000	0.0000;
	250	1	2.664	0.5	0	0	1	1.04071739	7.51274064	110	1	1.12	0.95	118.1059	-0.0131	0.0000	0.0000;
	251	1	3.516	0.1	0	0	1	1.08063741	18.1028003	110	1	1.12	0.95	105.3977	0.2954	0.0000	0.0000;
	252	1	11.721	5.4	0	0	1	1.07421151	22.2545251	110	1	1.12	0.95	103.6253	0.7883	0.0000	0.0000;
	253	1	11.721	4	0	0	1	1.06082515	17.1884418	110	1	1.12	0.95	106.8505	1.2318	0.0000	0.0000;
	254	1	10.122	1	0	0	1	1.05301408	9.59952798	110	1	1.12	0.95	113.3108	0.4860	0.0000	0.0000;
	255	1	12.787	1.5	0	0	1	1.07267366	12.454389	110	1	1.12	0.95	110.8171	0.1575	0.0000	0.0000;
	256	1	4.795	0	0	0	1	1.07280251	12.2855675	110	1	1.12	0.95	110.9039	0.1461	0.0000	0.0000;
	257	1	3.197	0.65	0	0	1	1.06008229	35.8088557	110	1	1.12	0.95	98.8092	0.2119	0.0000	0.0000;
	258	1	3.197	0.65	0	0	1	1.06002028	35.7962893	110	1	1.12	0.95	98.8135	0.2127	0.0000	0.0000;
	259	1	7.992	2.47	0	0	1	1.07466567	28.5802372	110	1	1.12	0.95	101.8938	0.4934	0.0000	0.0000;
	260	1	4.795	0	0	0	1	1.03978939	7.15080901	110	1	1.12	0.95	118.5529	-0.0999	0.0000	0.0000;
	261	1	8.098	1.5	0	0	1	1.06748886	17.6174157	110	1	1.12	0.95	106.3940	1.2363	0.0000	0.0000;
	262	1	0	0	0	0	1	1.06568076	18.6409059	110	1	1.12	0.95	105.7274	1.0744	0.0000	0.0000;
	263	1	1.279	1	0	0	1	1.05827987	13.5411865	110	1	1.12	0.95	110.6104	0.4644	0.0000	0.0000;
	264	1	25.574	22	0	0	1	1.06675287	36.8222658	110	1	1.12	0.95	97.7521	0.0829	0.0000	0.0000;
	265	1	34.097	30	0	0	1	1.06364311	34.3795362	110	1	1.12	0.95	98.3746	0.4827	0.0000	0.0000;
	266	1	27.704	0.8	0	0	1	1.0688385	36.9785043	110	1	1.12	0.95	97.7278	-0.0657	0.0000	0.0000;
	267	1	1.066	0	0	0	1	1.05918117	17.3761992	110	1	1.12	0.95	106.7609	1.3259	0.0000	0.0000;
	268	1	9.59	0.8	0	0	1	1.06070787	16.6140683	110	1	1.12	0.95	107.9081	0.7898	0.0000	0.0000;
	269	1	5.967	2	0	0	1	1.08311055	18.4118637	110	1	1.12	0.95	105.0311	0.1993	0.0000	0.0000;
	270	1	9.057	1.5	0	0	1	1.0822154	16.6231408	110	1	1.12	0.95	107.7608	-0.0569	0.0000	0.0000;
	271	1	6.393	0.5	0	0	1	1.04161775	7.88083099	110	1	1.12	0.95	117.6812	0.0605	0.0000	0.0000;
	272	1	7.885	1.85	0	0	1	1.05837594	17.4476619	110	1	1.12	0.95	106.7596	1.3745	0.0000	0.0000;
	273	1	0.426	0.1	0	0	1	1.05590307	16.8569391	110	1	1.12	0.95	108.0473	1.5545	0.0000	0.0000;
	274	1	0.213	0.06	0	0	1	1.06626834	17.458153	110	1	1.12	0.95	106.1249	1.2102	0.0000	0.0000;
	275	1	0	0	0	0	1	1.06492606	17.2453992	110	1	1.12	0.95	106.2866	1.2612	0.0000	0.0000;
	276	1	11.401	5.18	0	0	1	1.08649421	30.1413441	110	1	1.12	0.95	100.1467	0.4513	0.0000	0.0000;
	277	1	0	0	0	0	1	1.08110641	29.4200757	110	1	1.12	0.95	100.2703	0.5394	0.0000	0.0000;
	278	1	5.328	1.4	0	0	1	1.07439998	29.0314757	110	1	1.12	0.95	101.7963	0.0741	0.0000	0.0000;
	279	1	2.131	0.5	0	0	1	1.08686872	16.0536993	110	1	1.12	0.95	107.4812	0.0233	0.0000	0.0000;
	280	1	5.328	0.5	0	0	1	1.07895993	14.9840635	110	1	1.12	0.95	109.0530	0.0871	0.0000	0.0000;
	281	1	5.328	1	0	0	1	1.06906546	17.518611	110	1	1.12	0.95	105.9008	1.1420	0.0000	0.0000;
	282	1	5.328	1	0	0	1	1.07115447	18.7417204	110	1	1.12	0.95	105.6253	0.8809	0.0000	0.0000;
	283	1	14.918	12	0	0	1	1.05176904	34.3585855	110	1	1.12	0.95	98.5469	0.6363	0.0000	0.0000;
	284	1	37.294	33	0	0	1	1.05144339	34.3634048	110	1	1.12	0.95	98.5509	0.6394	0.0000	0.0000;
	285	1	1.386	0.4	0	0	1	1.07248369	36.8664629	110	1	1.12	0.95	97.7556	-0.4027	0.0000	0.0000;
	286	1	0	0	0	0	1	1.06955626	36.8263892	110	1	1.12	0.95	97.7198	0.0402	0.0000	0.0000;
	287	1	8.525	2.9	0	0	1	1.08794829	30.3211778	110	1	1.12	0.95	99.9826	0.4791	0.0000	0.0000;
	288	1	7.459	2	0	0	1	1.08097387	29.5493351	110	1	1.12	0.95	100.7916	0.5612	0.0000	0.0000;
	289	1	6.926	0.5	0	0	1	1.0677715	12.829967	110	1	1.12	0.95	111.2699	0.1398	0.0000	0.0000;
	290	1	4.795	0	0	0	1	1.08421763	15.1009418	110	1	1.12	0.95	108.0311	0.1144	0.0000	0.0000;
	291	1	3.729	2.5	0	0	1	1.0595887	16.559769	110	1	1.12	0.95	107.9124	1.1278	0.0000	0.0000;
	292	1	2.344	0.2	0	0	1	1.0665057	27.1591418	110	1	1.12	0.95	103.1786	0.4493	0.0000	0.0000;
	293	1	11.402	4.1	0	0	1	1.0718286	18.8155759	110	1	1.12	0.95	105.5382	0.8674	0.0000	0.0000;
	294	1	8.311	1.5	0	0	1	1.06774647	17.6295342	110	1	1.12	0.95	106.1755	1.2228	0.0000	0.0000;
	295	1	4.902	1.51	0	0	1	1.09068202	30.578778	110	1	1.12	0.95	99.6830	0.4629	0.0000	0.0000;
	296	1	1.704	1.4	0	0	1	1.06954067	19.8609042	110	1	1.12	0.95	105.1630	0.7839	0.0000	0.0000;
	297	1	4.582	0.5	0	0	1	1.0576642	16.2165656	110	1	1.12	0.95	108.5430	0.8375	0.0000	0.0000;
	298	1	7.672	0.8	0	0	1	1.06489327	27.0843925	110	1	1.12	0.95	103.2966	0.4990	0.0000	0.0000;
	299	1	4.262	0.7	0	0	1	1.08149298	29.6130791	110	1	1.12	0.95	100.8875	0.0854	0.0000	0.0000;
	300	1	6.18	2.11	0	0	1	1.08110902	29.3180754	110	1	1.12	0.95	100.9817	0.3499	0.0000	0.0000;
	301	1	8.205	2.53	0	0	1	1.06003548	27.620821	110	1	1.12	0.95	102.7397	0.7492	0.0000	0.0000;
	302	1	8.524	0.5	0	0	1	1.08909946	16.7267638	110	1	1.12	0.95	106.7655	0.0142	0.0000	0.0000;
	303	1	0	0	0	0	1	1.08136445	29.415917	110	1	1.12	0.95	100.2704	0.5248	0.0000	0.0000;
	304	1	4.049	1.5	0	0	1	1.04667891	33.7533543	110	1	1.12	0.95	100.5325	0.5772	0.0000	0.0000;
	305	1	7.992	2.72	0	0	1	1.09069366	30.5825103	110	1	1.12	0.95	99.6793	0.4634	0.0000	0.0000;
	306	1	7.779	2.4	0	0	1	1.06926503	28.5025236	110	1	1.12	0.95	101.5456	0.6748	0.0000	0.0000;
	307	1	13.746	4.24	0	0	1	1.08609326	30.1511618	110	1	1.12	0.95	100.1537	0.4687	0.0000	0.0000;
	308	1	12.254	3.78	0	0	1	1.08077941	29.2724963	110	1	1.12	0.95	101.0487	0.3232	0.0000	0.0000;
	309	2	14.147	9.046	0	0	1	1.08081	29.5921771	110	1	1.12	0.95	100.5960	0.4579	0.0000	0.0000;
	310	2	11.759	7	0	0	1	1.08142	29.3113562	110	1	1.12	0.95	101.0131	0.2846	0.0000	0.0000;
	311	2	15.573	8.3	0	0	1	1.0633	28.029571	110	1	1.12	0.95	102.2436	0.6692	0.0000	0.0000;
	312	1	0	0	0	0	1	1.0809908	29.3014686	110	1	1.12	0.95	101.0067	0.3395	0.0000	0.0000;
	313	2	10.354	5.48	0	0	1	1.08629	30.1486124	110	1	1.12	0.95	100.1466	0.4246	0.0000	0.0000;
	314	2	6.18	5.15	0	0	1	1.07931682	29.470695	110	1	1.12	0.95	100.3977	0.6172	0.0000	0.0000;
	315	1	8.525	1.2	0	0	1	1.06547068	27.4424697	110	1	1.12	0.95	102.9287	0.5474	0.0000	0.0000;
	316	1	2.131	0.5	0	0	1	1.08496535	16.576053	110	1	1.12	0.95	107.4558	-0.1016	0.0000	0.0000;
	317	1	4.794	1.5	0	0	1	1.05554591	15.9128115	110	1	1.12	0.95	108.5690	1.2503	0.0000	0.0000;
	318	1	3.996	1.25	0	0	1	1.05606911	15.7562221	110	1	1.12	0.95	108.7930	1.1805	0.0000	0.0000;
	319	1	6.127	1.25	0	0	1	1.05602002	15.758754	110	1	1.12	0.95	108.7903	1.1808	0.0000	0.0000;
	320	1	6.926	2.5	0	0	1	1.06488375	17.7627508	110	1	1.12	0.95	106.0968	1.2303	0.0000	0.0000;
	321	1	8.205	2.53	0	0	1	1.08721064	30.2528925	110	1	1.12	0.95	100.0324	0.4749	0.0000	0.0000;
	322	2	14.598	4.51	0	0	1	1.08468	30.0114166	110	1	1.12	0.95	100.3025	0.4638	0.0000	0.0000;
	323	1	12.787	1.5	0	0	1	1.07674142	14.7292458	110	1	1.12	0.95	109.4417	0.1012	0.0000	0.0000;
	324	1	13.959	4.76	0	0	1	1.07942408	29.4935629	110	1	1.12	0.95	100.3897	0.6147	0.0000	0.0000;
	325	1	5.967	1.84	0	0	1	1.08027141	29.5492698	110	1	1.12	0.95	100.6460	0.4725	0.0000	0.0000;
	326	1	5.967	1.84	0	0	1	1.08045332	29.4868182	110	1	1.12	0.95	100.7332	0.4450	0.0000	0.0000;
	327	1	7.459	1	0	0	1	1.07863458	14.9464656	110	1	1.12	0.95	109.1187	0.0915	0.0000	0.0000;
	328	1	13.852	3	0	0	1	1.0577554	16.4883324	110	1	1.12	0.95	108.3906	1.0377	0.0000	0.0000;
	329	1	9.057	2.8	0	0	1	1.08045382	29.4836862	110	1	1.12	0.95	100.7368	0.4445	0.0000	0.0000;
	330	1	5.328	2	0	0	1	1.08024313	29.470444	110	1	1.12	0.95	100.7850	0.3157	0.0000	0.0000;
	331	1	3.197	1	0	0	1	1.07991846	29.4257853	110	1	1.12	0.95	100.8602	0.2953	0.0000	0.0000;
	332	1	26.852	8.29	0	0	1	1.08383184	29.9387497	110	1	1.12	0.95	100.3845	0.5063	0.0000	0.0000;
	333	1	7.459	1	0	0	1	1.07948561	24.240776	110	1	1.12	0.95	102.2449	0.0270	0.0000	0.0000;
	334	1	2.664	0.8	0	0	1	1.0733093	28.4785406	110	1	1.12	0.95	102.0885	0.5191	0.0000	0.0000;
	335	1	5.86	0.8	0	0	1	1.0569963	16.4224132	110	1	1.12	0.95	108.5126	1.0519	0.0000	0.0000;
	336	1	5.434	0.2	0	0	1	1.05582159	13.0939291	110	1	1.12	0.95	110.9120	1.0025	0.0000	0.0000;
	337	1	7.352	2.27	0	0	1	1.07200161	28.7446529	110	1	1.12	0.95	101.2655	0.6526	0.0000	0.0000;
	338	1	7.459	2.7	0	0	1	1.06803564	15.2124414	110	1	1.12	0.95	109.3463	0.3928	0.0000	0.0000;