function mpc = case_ieee30_resqlim
%CASE_IEEE30_RESQLIM

%% MATPOWER Case Format : Version 2
mpc.version = '2';

%%-----  Power Flow Data  -----%%
%% system MVA base
mpc.baseMVA = 100;

%% bus data
%	bus_i	type	Pd	Qd	Gs	Bs	area	Vm	Va	baseKV	zone	Vmax	Vmin
mpc.bus = [
	1	1	0	0	0	0	1	1.07636605	0	132	1	1.06	0.94;
	2	1	21.7	12.7	0	0	1	1.05334549	-5.10975335	132	1	1.06	0.94;
	3	1	2.4	1.2	0	0	1	1.02874993	-7.22297227	132	1	1.06	0.94;
	4	1	7.6	1.6	0	0	1	1.01768974	-8.9094509	132	1	1.06	0.94;
	5	3	94.2	19	0	0	1	1.01	-13.6993891	132	1	1.06	0.94;
	6	1	0	0	0	0	1	1.01340708	-10.6342841	132	1	1.06	0.94;
	7	1	22.8	10.9	0	0	1	1.00425822	-12.4185461	132	1	1.06	0.94;
	8	2	30	30	0	0	1	1.01	-11.3289336	132	1	1.06	0.94;
	9	1	0	0	0	0	1	1.05286746	-13.666501	1	1	1.06	0.94;
	10	1	5.8	2	0	19	1	1.04744188	-15.252334	33	1	1.06	0.94;
	11	2	0	0	0	0	1	1.082	-13.666501	11	1	1.06	0.94;
	12	1	11.2	7.5	0	0	1	1.05941061	-14.5112819	33	1	1.06	0.94;
	13	2	0	0	0	0	1	1.071	-14.5112819	11	1	1.06	0.94;
	14	1	6.2	1.6	0	0	1	1.04460771	-15.3979418	33	1	1.06	0.94;
	15	1	8.2	2.5	0	0	1	1.04003296	-15.4879511	33	1	1.06	0.94;
	16	1	3.5	1.8	0	0	1	1.04671726	-15.0866377	33	1	1.06	0.94;
	17	1	9	5.8	0	0	1	1.04222963	-15.4154826	33	1	1.06	0.94;
	18	1	3.2	0.9	0	0	1	1.03052046	-16.0963445	33	1	1.06	0.94;
	19	1	9.5	3.4	0	0	1	1.02802133	-16.2674126	33	1	1.06	0.94;
	20	1	2.2	0.7	0	0	1	1.03209556	-16.0707663	33	1	1.06	0.94;
	21	1	17.5	11.2	0	0	1	1.03508326	-15.6932061	33	1	1.06	0.94;
	22	1	0	0	0	0	1	1.0356177	-15.6790865	33	1	1.06	0.94;
	23	1	3.2	1.6	0	0	1	1.02958137	-15.8736028	33	1	1.06	0.94;
	24	1	8.7	6.7	0	4.3	1	1.02402644	-16.044951	33	1	1.06	0.94;
	25	1	0	0	0	0	1	1.01986752	-15.6131042	33	1	1.06	0.94;
	26	1	3.5	2.3	0	0	1	1.0022358	-16.0306452	33	1	1.06	0.94;
	27	1	0	0	0	0	1	1.02580856	-15.0874765	33	1	1.06	0.94;
	28	1	0	0	0	0	1	1.00925387	-11.2451839	132	1	1.06	0.94;
	29	1	2.4	0.9	0	0	1	1.00602448	-16.3111646	33	1	1.06	0.94;
	30	1	10.6	1.9	0	0	1	0.994581438	-17.1893572	33	1	1.06	0.94;
];

%% generator data
%	bus	Pg	Qg	Qmax	Qmin	Vg	mBase	status	Pmax	Pmin	Pc1	Pc2	Qc1min	Qc1max	Qc2min	Qc2max	ramp_agc	ramp_10	ramp_30	ramp_q	apf
mpc.gen = [
	1	260.956948	0	10	0	1.06	100	1	360.2	0	0	0	0	0	0	0	0	0	0	0	0;
	2	40	50	50	-40	1.045	100	1	140	0	0	0	0	0	0	0	0	0	0	0	0;
	5	-0.35250107	29.8855555	40	-40	1.01	100	1	100	0	0	0	0	0	0	0	0	0	0	0	0;
	8	0	28.3109361	40	-10	1.01	100	1	100	0	0	0	0	0	0	0	0	0	0	0	0;
	11	0	15.1545219	24	-6	1.082	100	1	100	0	0	0	0	0	0	0	0	0	0	0	0;
	13	0	8.86588441	24	-6	1.071	100	1	100	0	0	0	0	0	0	0	0	0	0	0	0;
];

%% branch data
%	fbus	tbus	r	x	b	rateA	rateB	rateC	ratio	angle	status	angmin	angmax	Pf	Qf	Pt	Qt
mpc.branch = [
	1	2	0.0192	0.0575	0.0528	0	0	0	0	0	1	-360	360	173.2995	-9.9964	-168.3145	18.9378;
	1	3	0.0452	0.1652	0.0408	0	0	0	0	0	1	-360	360	87.6574	9.9964	-84.6001	-3.3446;
	2	4	0.057	0.1737	0.0368	0	0	0	0	0	1	-360	360	43.7289	6.5875	-42.7083	-7.4246;
	3	4	0.0132	0.0379	0.0084	0	0	0	0	0	1	-360	360	82.2001	2.1446	-81.3565	-0.6020;
	2	5	0.0472	0.1983	0.0418	0	0	0	0	0	1	-360	360	82.3755	7.1161	-79.4509	0.7197;
	2	6	0.0581	0.1763	0.0374	0	0	0	0	0	1	-360	360	60.5101	4.6585	-58.5690	-2.7639;
	4	6	0.0119	0.0414	0.009	0	0	0	0	0	1	-360	360	72.3546	-9.6073	-71.7435	10.8052;
	5	7	0.046	0.116	0.0204	0	0	0	0	0	1	-360	360	-15.1016	10.1658	15.2610	-11.8329;
	6	7	0.0267	0.082	0.017	0	0	0	0	0	1	-360	360	38.4454	-1.4827	-38.0610	0.9329;
	6	8	0.012	0.042	0.009	0	0	0	0	0	1	-360	360	29.5343	-0.5006	-29.4324	-0.0639;
	6	9	0	0.208	0	0	0	0	0.978	0	1	-360	360	27.7454	-7.5672	-27.7454	9.1694;
	6	10	0	0.556	0	0	0	0	0.969	0	1	-360	360	15.8628	0.3360	-15.8628	0.9437;
	9	11	0	0.208	0	0	0	0	0	0	1	-360	360	-0.0000	-14.7465	0.0000	15.1545;
	9	10	0	0.11	0	0	0	0	0	0	1	-360	360	27.7454	5.5771	-27.7454	-4.7824;
	4	12	0	0.256	0	0	0	0	0.932	0	1	-360	360	44.1102	16.0339	-44.1102	-11.3044;
	12	13	0	0.14	0	0	0	0	0	0	1	-360	360	-0.0000	-8.7699	0.0000	8.8659;
	12	14	0.1231	0.2559	0	0	0	0	0	0	1	-360	360	7.8488	2.4045	-7.7749	-2.2508;
	12	15	0.0662	0.1304	0	0	0	0	0	0	1	-360	360	17.8553	6.8012	-17.6399	-6.3771;
	12	16	0.0945	0.1987	0	0	0	0	0	0	1	-360	360	7.2062	3.3687	-7.1529	-3.2566;
	14	15	0.221	0.1997	0	0	0	0	0	0	1	-360	360	1.5749	0.6508	-1.5690	-0.6455;
	16	17	0.0524	0.1923	0	0	0	0	0	0	1	-360	360	3.6529	1.4566	-3.6455	-1.4295;
	15	18	0.1073	0.2185	0	0	0	0	0	0	1	-360	360	5.9989	1.6096	-5.9606	-1.5317;
	18	19	0.0639	0.1292	0	0	0	0	0	0	1	-360	360	2.7606	0.6317	-2.7558	-0.6219;
	19	20	0.034	0.068	0	0	0	0	0	0	1	-360	360	-6.7442	-2.7781	6.7614	2.8123;
	10	20	0.0936	0.209	0	0	0	0	0	0	1	-360	360	9.0428	3.6941	-8.9614	-3.5123;
	10	17	0.0324	0.0845	0	0	0	0	0	0	1	-360	360	5.3688	4.4077	-5.3545	-4.3705;
	10	21	0.0348	0.0749	0	0	0	0	0	0	1	-360	360	15.7812	9.9935	-15.6706	-9.7553;
	10	22	0.0727	0.1499	0	0	0	0	0	0	1	-360	360	7.6154	4.5889	-7.5631	-4.4809;
	21	22	0.0116	0.0236	0	0	0	0	0	0	1	-360	360	-1.8294	-1.4447	1.8300	1.4459;
	15	23	0.1	0.202	0	0	0	0	0	0	1	-360	360	5.0101	2.9130	-4.9790	-2.8502;
	22	24	0.115	0.179	0	0	0	0	0	0	1	-360	360	5.7330	3.0351	-5.6879	-2.9648;
	23	24	0.132	0.27	0	0	0	0	0	0	1	-360	360	1.7790	1.2502	-1.7731	-1.2382;
	24	25	0.1885	0.3292	0	0	0	0	0	0	1	-360	360	-1.2390	2.0121	1.2490	-1.9946;
	25	26	0.2544	0.38	0	0	0	0	0	0	1	-360	360	3.5444	2.3664	-3.5000	-2.3000;
	25	27	0.1093	0.2087	0	0	0	0	0	0	1	-360	360	-4.7934	-0.3718	4.8177	0.4181;
	28	27	0	0.396	0	0	0	0	0.968	0	1	-360	360	18.0983	5.0327	-18.0983	-3.7472;
	27	29	0.2198	0.4153	0	0	0	0	0	0	1	-360	360	6.1894	1.6677	-6.1035	-1.5055;
	27	30	0.3202	0.6027	0	0	0	0	0	0	1	-360	360	7.0913	1.6614	-6.9298	-1.3576;
	29	30	0.2399	0.4533	0	0	0	0	0	0	1	-360	360	3.7035	0.6055	-3.6702	-0.5424;
	8	28	0.0636	0.2	0.0428	0	0	0	0	0	1	-360	360	-0.5676	-1.6252	0.5680	-2.7364;
	6	28	0.0169	0.0599	0.013	0	0	0	0	0	1	-360	360	18.7246	1.1731	-18.6663	-2.2963;
];

%%-----  OPF Data  -----%%
%% generator cost data
%	1	startup	shutdown	n	x1	y1	...	xn	yn
%	2	startup	shutdown	n	c(n-1)	...	c0
mpc.gencost = [
	2	0	0	3	0.0384319754	20	0;
	2	0	0	3	0.25	20	0;
	2	0	0	3	0.01	40	0;
	2	0	0	3	0.01	40	0;
	2	0	0	3	0.01	40	0;
	2	0	0	3	0.01	40	0;
];

%% bus names
mpc.bus_name = {
	'Glen Lyn 132';
	'Claytor  132';
	'Kumis    132';
	'Hancock  132';
	'Fieldale 132';
	'Roanoke  132';
	'Blaine   132';
	'Reusens  132';
	'Roanoke  1.0';
	'Roanoke   33';
	'Roanoke   11';
	'Hancock   33';
	'Hancock   11';
	'Bus 14    33';
	'Bus 15    33';
	'Bus 16    33';
	'Bus 17    33';
	'Bus 18    33';
	'Bus 19    33';
	'Bus 20    33';
	'Bus 21    33';
	'Bus 22    33';
	'Bus 23    33';
	'Bus 24    33';
	'Bus 25    33';
	'Bus 26    33';
	'Cloverdle 33';
	'Cloverdle132';
	'Bus 29    33';
	'Bus 30    33';
};
