function mpc = case145_resqlim
%CASE145_RESQLIM

%% MATPOWER Case Format : Version 2
mpc.version = '2';

%%-----  Power Flow Data  -----%%
%% system MVA base
mpc.baseMVA = 100;

%% bus data
%    bus_i    type    Pd    Qd    Gs    Bs    area    Vm    Va    baseKV    zone    Vmax    Vmin
mpc.bus = [
    1    1    0    0    0    0    2    1.08099838    -4.3217833    500    2    1.06    0.94;
    2    1    0    0    0    0    2    1.08085415    -4.38839193    500    2    1.06    0.94;
    3    1    0    0    0    -126    2    1.10153101    -4.02449338    25.7    2    1.06    0.94;
    4    1    0    0    0    -126    2    1.10153101    -4.02449338    25.7    2    1.06    0.94;
    5    1    0    0    0    -126    2    1.10181468    -4.0243014    25.7    2    1.06    0.94;
    6    1    0    0    0    0    2    1.04330157    -7.83698062    500    2    1.06    0.94;
    7    1    0    0    0    0    2    1.0763067    3.20977065    500    2    1.06    0.94;
    8    1    0    0    0    0    2    1.11365414    1.14839808    100    2    1.06    0.94;
    9    1    0    0    0    0    2    1.03959304    -8.05198489    500    2    1.06    0.94;
    10    1    0    0    0    0    2    1.03956988    -8.05278404    500    2    1.06    0.94;
    11    1    0    0    0    0    2    1.09367151    -10.6575174    100    2    1.06    0.94;
    12    1    0    0    0    0    2    1.03886633    -8.7697025    500    2    1.06    0.94;
    13    1    0    0    0    0    2    1.09818989    -11.4304389    100    2    1.06    0.94;
    14    1    0    0    0    0    2    1.03852574    -9.17764922    500    2    1.06    0.94;
    15    1    0    0    0    -126    2    1.06830578    -9.8114891    100    2    1.06    0.94;
    16    1    0    0    0    -126    2    1.06863894    -9.86490329    100    2    1.06    0.94;
    17    1    0    0    0    -250    2    1.0012365    -9.44119419    500    2    1.06    0.94;
    18    1    0    0    0    -126    2    1.07464649    -10.880559    100    2    1.06    0.94;
    19    1    0    0    0    -58    2    1.07082179    -10.9605303    100    2    1.06    0.94;
    20    1    0    0    0    0    2    1.11305755    -10.9592902    100    2    1.06    0.94;
    21    1    0    0    0    0    2    1.10855735    -11.2423455    100    2    1.06    0.94;
    22    1    0    0    0    0    2    1.03105346    -3.88442588    500    2    1.06    0.94;
    23    1    0    0    0    0    2    1.09786088    -5.50973506    100    2    1.06    0.94;
    24    1    0    0    0    0    2    1.02721646    2.30445891    500    2    1.06    0.94;
    25    1    0    0    0    0    2    1.03796209    -9.87106878    500    2    1.06    0.94;
    26    1    0    0    0    0    2    1.08943778    -11.3747855    100    2    1.06    0.94;
    27    1    0    0    0    0    2    1.03885381    -13.0739572    500    2    1.06    0.94;
    28    1    0    0    0    -126    2    1.07621423    -15.2793476    100    2    1.06    0.94;
    29    1    0    0    0    -126    2    1.07460973    -15.4421663    100    2    1.06    0.94;
    30    1    0    0    0    0    2    1.07307485    -5.35022812    100    2    1.06    0.94;
    31    1    0    0    0    0    2    1.09053451    -11.8141901    100    2    1.06    0.94;
    32    1    0    0    0    0    2    1.0937099    -10.665057    100    2    1.06    0.94;
    33    1    0    0    0    0    2    1.13924575    -4.06190937    220    2    1.06    0.94;
    34    1    45.05    46.56    0    0    2    1.13871196    -4.00257571    220    2    1.06    0.94;
    35    1    49.19    27.53    0    0    2    1.13900255    -4.08072894    220    2    1.06    0.94;
    36    1    0    0    0    0    2    1.13854247    -3.81526376    220    2    1.06    0.94;
    37    1    0    0    0    0    2    1.12351663    -6.23265312    220    2    1.06    0.94;
    38    1    0    0    0    0    2    1.13057745    -5.29305325    220    2    1.06    0.94;
    39    1    0    0    0    0    2    1.12696024    -7.91644762    220    2    1.06    0.94;
    40    1    0    0    0    0    2    1.12693959    -7.9205546    220    2    1.06    0.94;
    41    1    0    0    54    -10    2    1.11884159    -10.4321096    100    2    1.06    0.94;
    42    1    0    0    54.8    -10    2    1.11881461    -10.4463259    100    2    1.06    0.94;
    43    1    0    0    0    0    2    1.11894833    -10.4042392    220    2    1.06    0.94;
    44    1    0    0    0    0    2    1.1189211    -10.4182119    220    2    1.06    0.94;
    45    1    0    0    0    0    2    1.1172938    -11.4149836    220    2    1.06    0.94;
    46    1    0    0    0    0    2    1.1173004    -11.4099288    220    2    1.06    0.94;
    47    1    0    0    15.2    5.37    2    1.12753241    -6.72581346    100    2    1.06    0.94;
    48    1    0    0    13.8    5.2    2    1.12783424    -6.7063588    100    2    1.06    0.94;
    49    1    0    0    0    0    2    1.12790362    -6.69691532    220    2    1.06    0.94;
    50    1    0    0    0    0    2    1.12760921    -6.71577036    220    2    1.06    0.94;
    51    1    58.45    28.44    0    0    2    1.11240094    -10.1595742    220    2    1.06    0.94;
    52    1    0    0    23    -9.7    2    1.11178239    -11.1324695    100    2    1.06    0.94;
    53    1    0    0    23.2    -9.7    2    1.11178264    -11.1340043    100    2    1.06    0.94;
    54    1    0    0    18.8    -9.3    2    1.11311322    -11.7858807    100    2    1.06    0.94;
    55    1    0    0    18.7    -9.2    2    1.1131219    -11.7859082    100    2    1.06    0.94;
    56    1    0    0    18.6    -7.5    2    1.10715483    -9.94292405    100    2    1.06    0.94;
    57    1    0    0    18.8    -7    2    1.10720251    -9.94437118    100    2    1.06    0.94;
    58    1    76.3    -10.8    121    140    2    1.10665498    -9.76405178    100    2    1.06    0.94;
    59    1    0    0    508    8.63    2    1.11645568    -10.8433503    100    2    1.06    0.94;
    60    2    0    0    201    165    2    1.137    -6.36746169    100    2    1.06    0.94;
    61    1    0    0    0    149    2    1.11443083    -11.8909969    220    2    1.06    0.94;
    62    1    0    0    0    0    2    1.05660144    -14.4688897    100    2    1.06    0.94;
    63    1    0    0    823    525    2    1.11092123    -13.9799926    100    2    1.06    0.94;
    64    1    0    0    123    -26    2    1.09800183    -9.28790208    100    2    1.06    0.94;
    65    1    0    0    124    -26    2    1.09797669    -9.28968977    100    2    1.06    0.94;
    66    1    102.2    26.7    216    1897    2    1.11288944    1.31765799    100    2    1.06    0.94;
    67    2    0    0    1821    1280    2    1.09    -5.65771797    100    2    1.06    0.94;
    68    1    0    -7.41    56.3    -25    2    1.20859802    -30.9857332    100    2    1.06    0.94;
    69    1    0    0    971    -144    2    1.0967547    -10.4170087    100    2    1.06    0.94;
    70    1    0    56.63    103    -86    2    0.999830083    -14.1671415    100    2    1.06    0.94;
    71    1    0    -21.2    106    -122    2    1.02748401    -14.2607435    100    2    1.06    0.94;
    72    1    0    0    1019    24.6    2    1.10072445    -11.1946328    100    2    1.06    0.94;
    73    1    0    0    1222    841    2    1.09752372    -11.0600114    100    2    1.06    0.94;
    74    1    81.9    43.7    857    574    2    1.09726711    -11.4612355    100    2    1.06    0.94;
    75    1    0    0    387    199    2    1.11787253    -15.1878263    100    2    1.06    0.94;
    76    1    0    0    -667    -185    2    1.02087845    5.53593961    100    2    1.06    0.94;
    77    1    0    0    0    -125    2    0.987963505    6.72103724    100    2    1.06    0.94;
    78    1    89    26.8    0    0    2    1.07398021    -5.1889401    100    2    1.06    0.94;
    79    2    9.1    3    238    27.1    2    1.052    -9.51091038    100    2    1.06    0.94;
    80    2    17.1    5    -0.08    29.9    2    1.069    -8.21065475    100    2    1.06    0.94;
    81    1    82.2    -93.1    70    -47    2    1.13038958    -25.8650828    100    2    1.06    0.94;
    82    2    2.1    1.1    111    -28    2    0.975    -18.6636642    100    2    1.06    0.94;
    83    1    0    0    105    -0.42    2    1.098487    -5.38116332    100    2    1.06    0.94;
    84    1    24.3    8.2    0    0    2    1.11557887    -9.43946039    100    2    1.06    0.94;
    85    1    27.4    0.3    0    0    2    1.11649416    -13.0461834    100    2    1.06    0.94;
    86    1    0    0    292    -22    2    1.05669069    -14.0098159    100    2    1.06    0.94;
    87    1    0    0    37.7    -47    2    1.0651519    -7.17181758    100    2    1.06    0.94;
    88    1    69    20.9    0    0    2    1.10942096    -8.34534448    100    2    1.06    0.94;
    89    2    0.6    0.2    678    71.1    2    1.066    3.68345992    100    2    1.06    0.94;
    90    2    4.6    1.5    29.5    -19    2    0.95    -7.35446146    100    2    1.06    0.94;
    91    2    0    0    19.3    -27    2    1    -9.27684446    100    2    1.06    0.94;
    92    1    0    31.02    43.4    -43    2    0.956120497    -12.7522448    100    2    1.06    0.94;
    93    2    100.4    73.2    0    0    2    1    -1.91863649    18.5    2    1.06    0.94;
    94    2    15.4    7.6    140    -141    2    1.02    -0.742367809    100    2    1.06    0.94;
    95    2    6.7    2.2    27.2    -58    2    0.92    18.8814841    100    2    1.06    0.94;
    96    2    0    0    47.8    -45    2    1    -8.97721027    100    2    1.06    0.94;
    97    2    0    0    129    -177    2    0.967    -4.34483496    100    2    1.06    0.94;
    98    2    0    0    82.1    -121    2    0.97    5.18598276    100    2    1.06    0.94;
    99    2    10.46    5.23    0    0    2    1    1.09717007    18    2    1.06    0.94;
    100    2    0    0    59.1    -101    2    1.014    0.702153829    100    2    1.06    0.94;
    101    2    17.8    4.5    64.7    -238    2    1.039    -6.09002649    100    2    1.06    0.94;
    102    2    37.6    9.2    458    -619    2    1.019    -4.76425242    100    2    1.06    0.94;
    103    2    0    0    62.4    -45    2    1    1.51327666    100    2    1.06    0.94;
    104    1    30.2    7.6    0    0    2    1.00591192    13.6759127    100    2    1.06    0.94;
    105    2    96    167.4    24.2    -999    2    1.007    -2.79540139    100    2    1.06    0.94;
    106    2    64    16    36.9    -719    2    1.005    -2.7500654    100    2    1.06    0.94;
    107    1    -17.5    -12.8    28.8    -22    2    1.02107699    -13.5747325    100    2    1.06    0.94;
    108    2    0    0    520    -244    2    1.014    -14.0310757    100    2    1.06    0.94;
    109    2    0    0    84.5    -47    2    0.915    -18.4555107    100    2    1.06    0.94;
    110    2    100.4    73.2    0    0    2    1    -1.30760677    18.5    2    1.06    0.94;
    111    2    60.4    1166    23.3    -999    2    1    7.97088515    100    2    1.06    0.94;
    112    2    18.6    4.6    64.3    -236    2    1.037    -6.26453673    100    2    1.06    0.94;
    113    1    0    0    0    0    2    0.977971543    -4.38839193    24    2    1.06    0.94;
    114    1    0    0    0    0    2    0.977971543    -4.38839193    24    2    1.06    0.94;
    115    2    683.5    184.7    2856    9.41    1    1.049    -15.6106914    100    1    1.06    0.94;
    116    2    792.6    315.5    1930    -195    1    1.043    -16.8619647    100    1    1.06    0.94;
    117    2    485.3    71.4    2410    -54    2    1.03    -15.3237537    100    2    1.06    0.94;
    118    2    651.9    328.4    4788    -979    2    1.01    -17.7933154    100    2    1.06    0.94;
    119    2    2094    3774    9999    -999    2    1.013    -59.4121418    100    2    1.06    0.94;
    120    1    -408    175.1    2026    855    2    1.03310567    -51.6049845    100    2    1.06    0.94;
    121    2    237.7    -17.3    306    1055    2    1.046    -20.1963637    100    2    1.06    0.94;
    122    2    29.2    7    397    -61    2    1    -2.78944458    100    2    1.06    0.94;
    123    1    -84    -19    118    1.4    2    1.01711499    -33.1226377    100    2    1.06    0.94;
    124    2    94.1    780.3    766    -999    2    1    -1.88583517    100    2    1.06    0.94;
    125    1    -712    -319    2831    -71    2    1.00838195    -32.5945172    100    2    1.06    0.94;
    126    1    -333    -160    1604    347    2    1.05238241    -73.9001179    100    2    1.06    0.94;
    127    1    -546    -72    305    -51    2    1.00696198    -36.3996347    100    2    1.06    0.94;
    128    2    4075    703.5    5252    -472    2    1.025    -39.7059346    100    2    1.06    0.94;
    129    1    -482    -122    3855    387    2    0.980186545    -73.0735018    100    2    1.06    0.94;
    130    2    4328    944.3    3830    -91    1    1.057    -51.8652557    100    1    1.06    0.94;
    131    2    21840    4320    5145    -780    1    1.042    -24.3167766    100    1    1.06    0.94;
    132    2    491.9    110.2    1239    -226    1    1.042    -7.24163815    100    1    1.06    0.94;
    133    1    -83    -36.3    103    -5.9    2    1.09221932    -11.5989092    100    2    1.06    0.94;
    134    2    22309    7402    -141    -78    1    1.044    -10.8208295    100    1    1.06    0.94;
    135    2    4298    1264    -999    835    1    1.107    29.044505    100    1    1.06    0.94;
    136    2    52951    13552    -999    375    1    1.083    4.38771417    100    1    1.06    0.94;
    137    2    12946    2608    499    -219    1    1.064    -72.7313287    100    1    1.06    0.94;
    138    1    -363    -188    433    -81    2    1.11379201    12.0109973    100    2    1.06    0.94;
    139    2    57718    13936    1609    -999    1    1.04    -10.5569244    100    1    1.06    0.94;
    140    2    24775    6676    -289    -77    1    1.05    -26.1637652    100    1    1.06    0.94;
    141    2    32799    11361    5212    -999    1    1.053    -9.12030005    100    1    1.06    0.94;
    142    2    17737    3934    4323    2210    1    1.155    -10.7319186    100    1    1.06    0.94;
    143    2    4672    1709    586    -999    1    1.031    -13.6639624    100    1    1.06    0.94;
    144    2    9602    2203    -436    -999    1    0.997    -8.57724862    100    1    1.06    0.94;
    145    3    9173    1555    -999    457    1    1.052    5.02    100    1    1.06    0.94;
];

%% generator data
%    bus    Pg    Qg    Qmax    Qmin    Vg    mBase    status    Pmax    Pmin    Pc1    Pc2    Qc1min    Qc1max    Qc2min    Qc2max    ramp_agc    ramp_10    ramp_30    ramp_q    apf
mpc.gen = [
    60    51    32.9174987    53.4    -20.4    1.137    100    1    151    0    0    0    0    0    0    0    0    0    0    0    0;
    67    1486    285.19454    891.6    -594    1.09    100    1    1586    0    0    0    0    0    0    0    0    0    0    0    0;
    79    250.2    -15.9506324    150.1    -100    1.052    100    1    350.2    0    0    0    0    0    0    0    0    0    0    0    0;
    80    47    -15.0650623    28.2    -18.8    1.069    100    1    147    0    0    0    0    0    0    0    0    0    0    0    0;
    82    70    17.1537625    42    -28    0.975    100    1    170    0    0    0    0    0    0    0    0    0    0    0    0;
    89    673    136.392039    403.8    -269    1.066    100    1    773    0    0    0    0    0    0    0    0    0    0    0    0;
    90    22    -3.86513056    13.2    -8.8    0.95    100    1    122    0    0    0    0    0    0    0    0    0    0    0    0;
    91    64    -1.53912023    38.4    -25.6    1    100    1    164    0    0    0    0    0    0    0    0    0    0    0    0;
    93    700    373.805184    766    -520    1    100    1    800    0    0    0    0    0    0    0    0    0    0    0    0;
    94    300    19.0533915    288    -192    1.02    100    1    400    0    0    0    0    0    0    0    0    0    0    0    0;
    95    131    10.1219287    108.6    -72.4    0.92    100    1    231    0    0    0    0    0    0    0    0    0    0    0    0;
    96    60    21.1087303    36    -24    1    100    1    160    0    0    0    0    0    0    0    0    0    0    0    0;
    97    140    45.6262912    84    -56    0.967    100    1    240    0    0    0    0    0    0    0    0    0    0    0    0;
    98    426    -32.7251867    255.6    -170    0.97    100    1    526    0    0    0    0    0    0    0    0    0    0    0    0;
    99    200    -8.34178598    110    -110    1    100    1    300    0    0    0    0    0    0    0    0    0    0    0    0;
    100    170    58.7168184    102    -68    1.014    100    1    270    0    0    0    0    0    0    0    0    0    0    0    0;
    101    310.9    148.658828    186.5    -124    1.039    100    1    410.9    0    0    0    0    0    0    0    0    0    0    0    0;
    102    2040    488.896382    640    0    1.019    100    1    2140    0    0    0    0    0    0    0    0    0    0    0    0;
    103    135    4.95774672    81    -54    1    100    1    235    0    0    0    0    0    0    0    0    0    0    0    0;
    104    2000    500    500    0    1.045    100    1    2100    0    0    0    0    0    0    0    0    0    0    0    0;
    105    1620    388.342015    1008    0    1.007    100    1    1720    0    0    0    0    0    0    0    0    0    0    0    0;
    106    1080    209.359216    671    0    1.005    100    1    1180    0    0    0    0    0    0    0    0    0    0    0    0;
    108    800    77.2843961    480    -320    1.014    100    1    900    0    0    0    0    0    0    0    0    0    0    0    0;
    109    52    -15.5513832    31.2    -20.8    0.915    100    1    152    0    0    0    0    0    0    0    0    0    0    0    0;
    110    700    519.829165    766    0    1    100    1    800    0    0    0    0    0    0    0    0    0    0    0    0;
    111    2000    563.71787    1000    0    1    100    1    2100    0    0    0    0    0    0    0    0    0    0    0    0;
    112    300    140.108683    160    0    1.037    100    1    400    0    0    0    0    0    0    0    0    0    0    0    0;
    115    2493    142.729636    1496    -997    1.049    100    1    2593    0    0    0    0    0    0    0    0    0    0    0    0;
    116    2713    631.837347    1628    -1085    1.043    100    1    2813    0    0    0    0    0    0    0    0    0    0    0    0;
    117    2627    258.549267    1576    -1051    1.03    100    1    2727    0    0    0    0    0    0    0    0    0    0    0    0;
    118    4220    660.367146    2532    -1688    1.01    100    1    4320    0    0    0    0    0    0    0    0    0    0    0    0;
    119    8954    4748.49782    5373    -3582    1.013    100    1    9054    0    0    0    0    0    0    0    0    0    0    0    0;
    121    2997    -160.210959    1798    -1199    1.046    100    1    3097    0    0    0    0    0    0    0    0    0    0    0    0;
    122    1009    174.042739    605.4    -404    1    100    1    1109    0    0    0    0    0    0    0    0    0    0    0    0;
    124    3005    569.194995    1803    -1202    1    100    1    3105    0    0    0    0    0    0    0    0    0    0    0    0;
    128    12963    2610.82371    7778    -5185    1.025    100    1    13063    0    0    0    0    0    0    0    0    0    0    0    0;
    130    5937    1834.95871    3562    -2375    1.057    100    1    6037    0    0    0    0    0    0    0    0    0    0    0    0;
    131    28300    7473.05912    16980    -9999    1.042    100    1    28400    0    0    0    0    0    0    0    0    0    0    0    0;
    132    3095    633.420764    1857    -1238    1.042    100    1    3195    0    0    0    0    0    0    0    0    0    0    0    0;
    134    20626    7402.14728    12375    -8250    1.044    100    1    20726    0    0    0    0    0    0    0    0    0    0    0    0;
    135    5982    1564.84103    3589    -2393    1.107    100    1    6082    0    0    0    0    0    0    0    0    0    0    0    0;
    136    51950    14453.5005    31170    -9999    1.083    100    1    52050    0    0    0    0    0    0    0    0    0    0    0    0;
    137    12068    3450.75667    7241    -4827    1.064    100    1    12168    0    0    0    0    0    0    0    0    0    0    0    0;
    139    56834    15849.6572    34100    -9999    1.04    100    1    56934    0    0    0    0    0    0    0    0    0    0    0    0;
    140    23123    6710.4733    13874    -9249    1.05    100    1    23223    0    0    0    0    0    0    0    0    0    0    0    0;
    141    37911    11669.5053    22747    -9999    1.053    100    1    38011    0    0    0    0    0    0    0    0    0    0    0    0;
    142    24449    5496.14062    14670    -9780    1.155    100    1    24549    0    0    0    0    0    0    0    0    0    0    0    0;
    143    5254    2158.62313    3152    -2101    1.031    100    1    5354    0    0    0    0    0    0    0    0    0    0    0    0;
    144    11397    2686.8471    6838    -4559    0.997    100    1    11497    0    0    0    0    0    0    0    0    0    0    0    0;
    145    14118.6399    2987.15406    9999    -9999    1.052    100    1    14218.62    0    0    0    0    0    0    0    0    0    0    0    0;
];

%% branch data
%    fbus    tbus    r    x    b    rateA    rateB    rateC    ratio    angle    status    angmin    angmax    Pf    Qf    Pt    Qt
mpc.branch = [
    1    2    3e-05    0.0008    0.0632    8659    0    0    0    0    1    -360    360    170.2842    9.5102    -170.2768    -16.6948;
    1    2    3e-05    0.0008    0.0632    0    0    0    0    0    1    -360    360    170.2842    9.5102    -170.2768    -16.6948;
    1    3    -0.009    -0.1718    0    0    0    0    0.935    0    1    -360    360    1.9150    -36.8654    -2.0068    35.1140;
    1    4    -0.009    -0.1718    0    0    0    0    0.935    0    1    -360    360    1.9150    -36.8654    -2.0068    35.1140;
    1    5    -0.0089    -0.1697    0    0    0    0    0.935    0    1    -360    360    1.9502    -37.1291    -2.0422    35.3741;
    1    6    0.00194    0.0209    2.3792    8659    0    0    0    0    1    -360    360    346.9109    33.9167    -344.4165    -275.5407;
    1    33    0.0001    0.006    0    750    0    0    0.935    0    1    -360    360    -94.1095    327.4861    94.1964    -322.2745;
    1    93    0.0002    0.0138    0    0    0    0    1.1036    0    1    -360    360    -299.5751    -134.7816    299.8000    150.3026;
    1    93    0.0002    0.0138    0    0    0    0    1.1036    0    1    -360    360    -299.5751    -134.7816    299.8000    150.3026;
    2    6    0.00194    0.0209    2.3792    8659    0    0    0    0    1    -360    360    340.5535    33.3896    -338.1342    -275.7862;
    2    113    0    0.0148    0    0    0    0    1.1052    0    1    -360    360    0.0000    0.0000    -0.0000    0.0000;
    2    114    0.00018    0.0145    0    0    0    0    1.1052    0    1    -360    360    0.0000    -0.0000    0.0000    0.0000;
    3    33    0.0002    0.0221    0    0    0    0    0    0    1    -360    360    2.0068    -187.9987    -1.9485    194.4368;
    4    33    0.0002    0.0221    0    0    0    0    0    0    1    -360    360    2.0068    -187.9987    -1.9485    194.4368;
    5    33    0.0002    0.0219    0    0    0    0    0    0    1    -360    360    2.0422    -188.3375    -1.9838    194.7371;
    6    7    0.00129    0.0139    1.4652    8659    0    0    0    0    1    -360    360    -1543.7250    -34.5188    1571.9922    174.4941;
    6    9    0.00016    0.0017    0.1752    8659    0    0    0    0    1    -360    360    258.5854    194.1721    -258.4262    -211.4822;
    6    10    0.00016    0.0017    0.1752    8659    0    0    0    0    1    -360    360    259.5951    195.5016    -259.4342    -212.7946;
    6    12    0.0002    0.0021    0.8776    8659    0    0    0    0    1    -360    360    854.0476    98.0860    -852.6683    -178.7229;
    6    12    0.0002    0.0021    0.8776    8659    0    0    0    0    1    -360    360    854.0476    98.0860    -852.6683    -178.7229;
    7    8    -0.0112    -0.1516    0    0    0    0    0.9716    0    1    -360    360    -28.8349    5.9053    28.7558    -6.9755;
    7    66    0.00015    0.0097    0    750    0    0    0.9716    0    1    -360    360    418.7399    -58.0422    -418.5214    72.1685;
    7    104    0.00036    0.019    0    0    0    0    1.1052    0    1    -360    360    -937.7369    -60.7510    941.0888    237.6577;
    7    104    0.00041    0.0174    0    0    0    0    1.1052    0    1    -360    360    -1024.1603    -61.6063    1028.7112    254.7423;
    8    66    0.0002    0.0299    0    0    0    0    0    0    1    -360    360    -12.2254    2.9480    12.2256    -2.9099;
    8    66    0.0002    0.0221    0    0    0    0    0    0    1    -360    360    -16.5304    4.0275    16.5309    -3.9759;
    9    11    -0.0217    -0.3062    0    0    0    0    0.9166    0    1    -360    360    -19.4114    -14.0492    19.3145    12.6825;
    9    69    0.0004    0.0188    0    750    0    0    0.9166    0    1    -360    360    277.8376    225.5314    -277.4394    -206.8160;
    10    32    -0.027    -0.3041    0    0    0    0    0.9166    0    1    -360    360    -19.8120    -13.7505    19.6899    12.3755;
    10    69    0.0004    0.0187    0    750    0    0    0.9166    0    1    -360    360    279.2462    226.5451    -278.8441    -207.7477;
    11    69    0.0002    0.0262    0    0    0    0    0    0    1    -360    360    -19.3145    -12.6825    19.3154    12.7994;
    12    13    -0.0223    -0.3099    0    0    0    0    0.9166    0    1    -360    360    -19.5014    -11.9038    19.4108    10.6445;
    12    13    -0.0237    -0.316    0    0    0    0    0.9166    0    1    -360    360    -19.1559    -11.6135    19.0634    10.3790;
    12    13    -0.0237    -0.316    0    0    0    0    0.9166    0    1    -360    360    -19.1559    -11.6135    19.0634    10.3790;
    12    14    0.00096    0.0091    0.8556    8659    0    0    0    0    1    -360    360    83.9216    -50.8346    -83.8587    -40.8795;
    12    14    0.00096    0.0091    0.8556    8659    0    0    0    0    1    -360    360    83.9216    -50.8346    -83.8587    -40.8795;
    12    25    0.00051    0.0055    0.625    8659    0    0    0    0    1    -360    360    375.5340    -47.8469    -374.8666    -12.3501;
    12    25    0.00051    0.0055    0.625    8659    0    0    0    0    1    -360    360    375.5340    -47.8469    -374.8666    -12.3501;
    12    72    0.0003    0.0189    0    750    0    0    0.9166    0    1    -360    360    282.4145    197.3231    -282.1373    -179.8595;
    12    72    0.0003    0.019    0    750    0    0    0.9166    0    1    -360    360    280.9121    196.3083    -280.6378    -178.9366;
    12    72    0.0003    0.019    0    0    0    0    0.9166    0    1    -360    360    280.9121    196.3083    -280.6378    -178.9366;
    13    72    0.0002    0.026    0    0    0    0    0    0    1    -360    360    -19.2153    -10.5183    19.2161    10.6218;
    13    72    0.0003    0.0262    0    0    0    0    0    0    1    -360    360    -19.1070    -10.3659    19.1082    10.4686;
    13    72    0.0002    0.026    0    0    0    0    0    0    1    -360    360    -19.2153    -10.5183    19.2161    10.6218;
    14    15    -0.0415    -0.3996    0    0    0    0    0.9164    0    1    -360    360    -5.2106    -17.9004    5.0983    16.8189;
    14    16    -0.01    -0.1669    0    0    0    0    0.9164    0    1    -360    360    -11.2953    -43.2584    11.1397    40.6608;
    14    17    0.00339    0.0367    3.4582    8659    0    0    0    0    1    -360    360    22.5892    -83.0262    -22.2367    -272.9851;
    14    17    0.00352    0.0367    3.4516    8659    0    0    0    0    1    -360    360    22.9447    -82.7844    -22.5790    -272.5427;
    14    58    0.0002    0.0097    0    750    0    0    0.9164    0    1    -360    360    138.6894    308.7284    -138.5111    -300.0769;
    15    58    0.0002    0.0255    0    0    0    0    0    0    1    -360    360    -5.0983    -160.6199    5.1436    166.3900;
    16    58    0.0002    0.022    0    0    0    0    0    0    1    -360    360    -11.1397    -184.5514    11.1995    191.1367;
    17    18    -0.3181    -1.315    0    0    0    0    0.8708    0    1    -360    360    -3.7380    -5.6956    3.6264    5.2340;
    17    19    0    -0.847    0    0    0    0    0.8634    0    1    -360    360    -3.8872    -12.2123    3.8872    11.1778;
    17    20    0    -0.8676    0    0    0    0    0.8634    0    1    -360    360    -3.9414    -6.2790    3.9414    5.9244;
    17    21    -0.0095    -0.1615    0    0    0    0    0.8708    0    1    -360    360    -26.4643    -28.1880    26.3569    26.3618;
    17    22    0.00228    0.0276    2.6204    8659    0    0    0    0    1    -360    360    -367.1603    -191.6029    370.3089    -40.9104;
    17    59    0.0001    0.0071    0    750    0    0    0.8708    0    1    -360    360    450.0069    538.8870    -449.6341    -512.4151;
    18    59    0.0002    0.0298    0    0    0    0    0    0    1    -360    360    -3.6264    -150.7470    3.6657    156.6142;
    19    59    0    0.0629    0    0    0    0    0    0    1    -360    360    -3.8872    -77.6840    3.8872    81.0027;
    20    59    0    0.0638    0    0    0    0    0    0    1    -360    360    -3.9414    -5.9244    3.9414    5.9505;
    21    59    0.0002    0.0329    0    0    0    0    0    0    1    -360    360    -26.3569    -26.3618    26.3591    26.7338;