function mpc = case1951rte_res
%CASE1951RTE_RES

%% MATPOWER Case Format : Version 2
mpc.version = '2';

%%-----  Power Flow Data  -----%%
%% system MVA base
mpc.baseMVA = 100;

%% bus data
%    bus_i    type    Pd    Qd    Gs    Bs    area    Vm    Va    baseKV    zone    Vmax    Vmin
mpc.bus = [
    1    1    36.4    19.5    0    0    1    1.04156438    -18.7605375    225    1    1.08889    0.888889;
    2    1    0    0    0    0    1    1.08106794    -5.18369634    380    1    1.10263    1.04841;
    3    1    245.2    16.4    0    0    1    1.0656352    -23.625092    225    1    1.08444    1.00444;
    4    1    0    0    0    0    1    1.07515462    -8.37851316    150    1    1.10667    0.9;
    5    1    51.8    13.5    0    0    1    1.07006503    -11.7089935    225    1    1.08889    0.933333;
    6    1    36.6    11.6    0    0    1    1.06761706    -12.7555923    225    1    1.08889    0.933333;
    7    1    0    0    0    0    1    1.08498144    -10.6561516    380    1    1.10526    1.03947;
    8    1    0    0    0    0    1    1.08034677    -12.008935    380    1    1.10526    1.03947;
    9    1    0    0    0    0    1    1.07715395    -28.5404996    225    1    1.09035    1.00444;
    10    1    193.4    48.9    0    0    1    1.03576701    -15.9359553    225    1    1.08889    0.933333;
    11    1    57.7    14.6    0    0    1    1.06282947    -29.5313783    225    1    1.08889    1.00444;
    12    1    27.8    24.4    0    0    1    1.07585852    -25.1250975    225    1    1.08889    1.00444;
    13    1    177.5    52.5    0    0    1    1.06261654    -29.5333218    225    1    1.08889    1.00444;
    14    1    75.8    7.3    0    0    1    1.05844345    -15.7274321    225    1    1.08252    0.95;
    15    1    0    0    0    0    1    1.08790993    -14.1191042    225    1    1.08889    1.00444;
    16    1    0    0    0    0    1    1.08791035    -14.1191071    225    1    1.08889    1.00444;
    17    1    66.2    0.9    0    0    1    1.05909858    -15.6001785    225    1    1.08889    0.888889;
    18    1    12.3    7.1    0    0    1    1.07270734    -3.32994458    225    1    1.09633    0.986667;
    19    1    67.9    23    0    0    1    1.04710477    -26.5178168    225    1    1.08889    1.00444;
    20    1    29.2    7.2    0    0    1    1.04717004    -26.5150108    225    1    1.08889    1.00444;
    21    1    77.8    31.2    0    0    1    1.06072447    -26.4664835    225    1    1.08889    1.00444;
    22    1    105.6    22.8    0    0    1    1.04639908    -11.4421554    225    1    1.08889    0.986667;
    23    1    41.1    2.7    0    0    1    1.04575021    -15.6103333    225    1    1.08889    0.888889;
    25    1    56.2    8.1    0    0    1    1.05831954    -29.237684    225    1    1.08444    1.00889;
    26    1    29.3    6.4    0    0    1    1.05865407    -29.1899651    225    1    1.08444    1.00889;
    27    1    102.1    38    0    0    1    1.04967389    -14.6525649    225    1    1.08889    0.933333;
    28    1    172.1    40    0    0    1    1.06569731    -25.8735011    225    1    1.08889    1.00444;
    29    1    0    0    0    0    1    1.08115206    -5.17193258    380    1    1.10526    1.04842;
    30    1    0    0    0    0    1    1.08119505    -5.17597624    380    1    1.10526    1.04842;
    31    1    36.2    31.7    0    0    1    1.0636679    -10.0261569    225    1    1.08444    1.00889;
    33    1    133.2    20.1    0    0    1    1.06618321    -17.6807542    225    1    1.08444    1.00889;
    34    1    89.4    29.6    0    0    1    1.02444176    -27.4213251    225    1    1.08889    1.00444;
    2013    1    0    0    0    0    1    1.06403148    -29.3493218    225    1    1.08889    1.00444;
    35    1    10.3    -0.4    0    0    1    1.06610649    -14.151961    150    1    1.08    0.966667;
    36    1    22.3    6.7    0    80    1    1.04297751    -21.062659    225    1    1.09212    1;
    37    1    0    0    0    0    1    1.05139194    -17.7697554    380    1    1.10526    1.04785;
    38    1    144.2    18.9    0    0    1    1.01387729    -15.752765    225    1    1.08889    0.986667;
    39    1    117.8    31.5    0    0    1    1.06019205    -15.3961951    225    1    1.08889    0.968889;
    40    1    194.8    53.6    0    0    1    1.0769765    -12.2197168    380    1    1.10526    1;
    41    1    64.7    12.6    0    0    1    1.05178141    -14.0985074    225    1    1.08889    0.933333;
    42    1    44.6    15.6    0    0    1    1.05630889    -13.9328276    225    1    1.08889    0.888889;
    43    1    46.9    11.7    0    0    1    1.05646065    -13.938156    225    1    1.08889    0.888889;
    44    1    381.3    62.5    0    0    1    1.06911964    -32.0998486    225    1    1.08496    1.00444;
    45    1    161.5    -38.5    0    0    1    1.06614528    -28.5768516    225    1    1.08889    1.00444;
    46    2    0    0    0    0    1    1.107    -18.072141    150    1    1.10843    0.9;
    47    1    0    0    0    0    1    1.05354741    -26.6612978    225    1    1.08889    1.00444;
    48    1    0    0    0    0    1    1.05354719    -26.6612966    225    1    1.08889    1.00444;
    49    1    123.5    43.4    0    0    1    1.05354593    -26.6612896    225    1    1.08889    1.00444;
    50    1    10    3.7    0    0    1    1.06578335    -26.4434611    225    1    1.08889    1.00444;
    51    1    0    0    0    0    1    1.05746282    -20.4854484    225    1    1.08889    1;
    52    1    74.6    28    0    0    1    1.04135352    -16.3222901    225    1    1.08889    0.888889;
    53    1    160.2    38.2    0    0    1    1.06973141    -8.50140547    225    1    1.08889    0.968889;
    54    1    0    0    0    0    1    1.08890401    -4.6422828    380    1    1.10526    1;
    55    1    31    11    0    0    1    1.06407623    -16.1231868    225    1    1.08444    1.00889;
    56    1    14.7    -1    0    0    1    1.06440602    -16.1076116    225    1    1.08444    1.00889;
    1827    1    201.2    11.7    0    0    1    1.05483935    -31.0020063    225    1    1.08889    1.00444;
    57    1    57    3    0    0    1    1.0806565    -17.7415219    225    1    1.08945    0.933333;
    58    2    0    0    0    0    1    1.107    -18.1930852    150    1    1.10862    0.9;
    59    1    55.4    19.7    0    0    1    1.07760874    -15.802143    225    1    1.08444    1.00889;
    60    1    55.7    41.6    0    0    1    1.07726643    -15.7989909    225    1    1.08444    1.00889;
    61    1    0    0    0    0    1    1.0747733    -16.0337631    225    1    1.08889    0.977778;
    62    1    16.4    4.9    0    0    1    1.05699956    -13.1681981    225    1    1.08889    0.888889;
    63    1    1.6    12.7    0    0    1    1.07829683    -12.6395834    225    1    1.08889    0.933333;
    64    1    29.7    12    0    0    1    1.0744217    -25.4217176    225    1    1.08889    1.00444;
    65    1    54.7    13.6    0    0    1    1.07655969    -28.628764    225    1    1.08889    1.00444;
    66    1    -21.9    -5.1    0    0    1    1.05838711    -20.6923456    225    1    1.08889    1;
    67    1    29.2    -2.5    0    0    1    1.07592569    -19.75323    225    1    1.08889    0.986667;
    68    1    0    0    0    80    1    1.06446453    -13.70254    225    1    1.08889    0.888889;
    69    1    0    0    0    0    1    1.04917902    -15.1066055    225    1    1.08889    0.888889;
    70    1    0    0    0    0    1    1.07332678    -10.1037673    380    1    1.10526    1.01316;
    71    1    76.3    14.3    0    0    1    1.04641816    -26.7134179    225    1    1.08889    1.00444;
    72    1    29    5    0    0    1    1.06704471    -25.5768096    225    1    1.08889    1.00444;
    73    1    0    0    0    0    1    1.05515064    -11.3556698    225    1    1.08889    0.977778;
    74    1    0    0    0    0    1    1.05516063    -11.355005    225    1    1.08889    0.977778;
    75    1    182.4    31.2    0    0    1    1.05235831    -12.1905884    225    1    1.08444    1.00889;
    76    1    0    0    0    0    1    1.07808736    -27.9048256    225    1    1.08444    1.00444;
    77    1    0    0    0    0    1    1.09685042    -21.8573751    380    1    1.10263    1.04211;
    78    1    116.1    17.6    0    0    1    1.07774646    -27.9642853    225    1    1.08444    1.00444;
    79    1    -7.4    0.9    0    0    1    1.07687015    -24.9582889    225    1    1.08936    1.00444;
    80    1    14    12.6    0    0    1    1.07673646    -24.9685653    225    1    1.08936    1.00444;
    81    1    48.7    2.9    0    0    1    1.08188741    -5.91722258    225    1    1.08889    0.888889;
    82    1    27.9    3.3    0    0    1    1.04945467    -16.2033153    225    1    1.08124    0.95;
    83    1    61.9    19.7    0    0    1    1.0716185    -7.24636253    225    1    1.08889    0.888889;
    84    1    158.1    -16.5    0    0    1    1.034934    -22.1996323    225    1    1.08889    1;
    85    1    0    0    0    0    1    1.02554525    -16.8542257    225    1    1.08889    1;
    86    1    403.7    124.8    0    0    1    1.06351772    -16.7985533    380    1    1.10526    1.0507;
    87    1    108.6    44.4    0    0    1    1.03705627    -17.2941265    225    1    1.08889    1;
    88    1    140.7    36.8    0    0    1    1.05548392    -20.9611289    225    1    1.08889    1;
    89    2    0    0    0    0    1    1.042    -21.4174242    150    1    1.1    0.9;
    90    1    56.6    23.2    0    0    1    1.02869716    -17.4500571    225    1    1.08889    0.986667;
    91    1    12.5    6.1    0    0    1    1.06110535    -10.011071    225    1    1.08444    1.00889;
    92    1    0    0    0    0    1    1.09628154    -10.2752951    380    1    1.10526    1.04211;
    93    1    0    0    0    0    1    1.09626652    -10.3408643    380    1    1.10526    1.04211;
    96    1    12.7    0.6    0    0    1    1.03899906    -21.249333    225    1    1.08889    1;
    97    1    18.3    11.1    0    0    1    1.05967534    -26.3404543    225    1    1.08889    1.00444;
    98    1    90.8    9.6    0    0    1    1.08980899    -20.3391476    150    1    1.1    0.9;
    99    1    82.1    -2.6    0    0    1    1.06178937    -19.5760273    225    1    1.08889    1;
    100    2    1.3    0    0    0    1    1.047    -26.5626067    225    1    1.08294    0.95;
    101    1    0    0    0    0    1    1.06996351    -11.6033765    225    1    1.08889    0.933333;
    102    1    0    0    0    0    1    1.08055246    -11.9300442    380    1    1.10526    1.03947;
    103    1    0    0    0    0    1    1.08508578    -10.5926216    380    1    1.10526    1.03947;
    104    1    0    0    0    0    1    1.06318926    -29.5087452    225    1    1.08889    1.00444;
    1828    1    86.9    24.6    0    0    1    1.02240079    -27.6979431    225    1    1.08889    1.00444;
    105    1    0    0    0    0    1    1.01450076    -8.32170765    225    1    1.08889    0.986667;
    106    1    12.8    7.6    0    0    1    1.0630316    -29.5180245    225    1    1.08889    1.00444;
    107    1    150.1    27.1    0    0    1    1.05758647    -16.7313551    225    1    1.08889    0.933333;
    108    1    0    0    0    0    1    1.08771263    -13.0937516    380    1    1.10526    1.03947;
    109    1    32.1    -1.6    0    0    1    1.05221496    -19.42176    225    1    1.08889    1;
    110    1    29.4    1.2    0    0    1    1.06427041    -27.6469852    225    1    1.08986    1.00444;
    111    1    131.9    2.8    0    0    1    1.04763532    -21.4392097    225    1    1.09612    1;
    112    1    174.9    55.6    0    0    1    1.04821999    -6.09890022    225    1    1.08889    0.986667;
    113    1    129.6    33.2    0    0    1    1.07717994    -28.5335757    225    1    1.09036    1.00444;
    114    1    245.6    120.6    0    0    1    1.03178823    -16.9927144    225    1    1.08889    0.924444;
    115    1    82.1    14.7    0    0    1    1.09231277    -2.05616931    225    1    1.09614    0.986667;
    117    1    0    0    0    0    1    1.09389537    -0.736213886    380    1    1.10526    1.03947;
    119    1    192    -29.8    0    0    1    1.06047317    -44.120148    225    1    1.08444    1.00444;
    120    1    21.6    -16.9    0    0    1    1.06060073    -27.8034912    225    1    1.08444    1.00889;
    121    1    0    0    0    0    1    1.05482056    -24.8317512    380    1    1.10263    1.02895;
    122    1    -0.1    -4.2    0    0    1    1.05814282    -16.7377691    225    1    1.08889    0.933333;
    123    1    172.6    37.2    0    0    1    1.05310157    -14.5175853    225    1    1.08889    0.933333;
    124    1    31.9    29.8    0    0    1    0.985502684    -27.6805996    63    1    1.07937    0.920635;
    125    2    0    0    0    0    1    1.075    -11.1822761    225    1    1.07476    0.95;
    126    1    4.4    5.3    0    0    1    1.06254415    -12.6191947    225    1    1.09768    1;
    127    1    0    0    0    0    1    1.06165332    -12.4481071    380    1    1.10526    1.05263;
    128    1    0    0    0    0    1    1.06171209    -12.4449698    380    1    1.10526    1.05263;
    129    1    0    0    0    0    1    1.06171169    -12.4414328    380    1    1.10526    1.05263;
    130    1    0    0    0    0    1    1.06171591    -12.4569393    380    1    1.10526    1.05263;
    131    1    0    0    0    0    1    1.09281722    -1.93828971    225    1    1.09645    0.986667;
    132    1    0    0    0    0    1    1.09321091    -1.89406638    225    1    1.09645    0.986667;
    133    1    0    0    0    0    1    1.09428806    -0.660023831    380    1    1.10526    1.03947;
    134    1    123.5    26.5    0    0    1    1.04658623    -17.4078076    225    1    1.08889    0.968889;
    135    1    39.1    10.1    0    0    1    1.05841531    -29.1726347    225    1    1.08444    1.00889;
    136    1    4.4    -3.3    0    0    1    1.0929023    -14.4428362    380    1    1.10526    1.03947;
    137    1    166.9    46.7    0    0    1    1.06624388    -13.5936863    225    1    1.08889    0.933333;
    138    1    0    0    0    0    1    1.08828937    -8.66211144    380    1    1.10526    1.03947;
    140    1    202    20.2    0    0    1    1.06351924    -7.79388057    225    1    1.08444    1.00889;
    142    1    231.3    -18.3    0    0    1    1.06383645    -21.4009315    225    1    1.08444    1.00444;
    143    1    49.3    7.8    0    0    1    1.06497019    -14.3219736    225    1    1.08889    0.933333;
    144    1    40.6    10.3    0    0    1    1.06495666    -14.3218472    225    1    1.08889    0.933333;
    145    1    49.8    -6.2    0    0    1    1.0643289    -27.6335652    225    1    1.08952    1.00444;
    146    1    0    0    0    0    1    1.08425216    -15.6314382    225    1    1.09478    1;
    147    1    0    0    0    0    1    1.08425017    -15.6314163    225    1    1.09478    1;
    148    1    68.7    4.5    0    0    1    1.03703861    -21.6794579    225    1    1.08889    1;
    149    1    30    -1.5    0    0    1    1.07013482    -22.6530231    225    1    1.08889    1.00444;
    150    1    52.2    3.9    0    0    1    1.05711849    -10.5337087    225    1    1.08444    1.00889;
    151    1    40.2    6.8    0    0    1    1.03024139    -22.9196139    225    1    1.08889    1;
    152    1    0    0    0    0    1    1.06766178    -18.9938039    225    1    1.08444    1.00889;
    153    1    0    0    0    0    1    1.06754722    -19.0038009    225    1    1.08444    1.00889;
    154    1    0    0    0    0    1    1.06827365    -13.7799336    225    1    1.08444    1.00889;
    155    1    0    0    0    0    1    1.0673204    -10.8896153    380    1    1.10263    1.02895;
    156    1    165.9    38.2    0    0    1    1.07127045    -6.97276103    225    1    1.08889    0.888889;
    157    1    0    0    0    0    1    1.06255578    -12.6189557    225    1    1.09766    1;
    158    1    0    0    0    0    1    1.0616181    -12.5220424    380    1    1.10526    1.05263;
    159    1    37.1    -0.1    0    0    1    1.06931636    -20.6089905    225    1    1.08889    0.986667;
    160    1    17.9    14.6    0    0    1    1.05141863    -20.1476178    225    1    1.08889    1;
    161    1    0    0    0    0    1    1.06392624    -47.4453704    225    1    1.08444    1.00444;
    162    1    0    0    0    0    1    1.06392624    -47.4453704    225    1    1.08444    1.00444;
    163    1    0    0    0    0    1    1.0639337    -47.4455673    225    1    1.08444    1.00444;
    164    1    96.9    -7.4    0    0    1    1.06392519    -47.4453427    225    1    1.08444    1.00444;
    165    1    0    0    0    0    1    1.04929635    -14.6824758    225    1    1.08889    0.933333;
    166    1    8.5    -5.2    0    0    1    1.05576074    -18.0294475    225    1    1.08889    0.986667;
    167    1    0    0    0    0    1    1.08003155    -15.5273422    225    1    1.08941    1;
    168    1    0    0    0    0    1    1.10275103    -13.6224102    380    1    1.10526    1.05263;
    169    2    0    0    0    0    1    1.065    -10.5301711    225    1    1.1    0.9;
    170    1    13    4    0    0    1    1.06378698    -14.2934111    150    1    1.08    0.966667;
    171    1    50.4    4.5    0    0    1    1.04775939    -26.33461    225    1    1.08889    1.00444;
    172    1    0.4    0.6    0    0    1    1.04808518    -26.2519316    225    1    1.08889    1.00444;
    173    1    29.1    -7.9    0    0    1    1.07510823    -7.61404816    225    1    1.08889    0.888889;
    175    1    0    0    0    0    1    1.09067669    -15.1361301    225    1    1.09176    1;
    176    1    0    0    0    0    1    1.09066171    -15.1401826    225    1    1.09176    1;
    177    1    0    0    0    0    1    1.09066018    -15.1414014    225    1    1.09176    1;
    178    1    0    0    0    0    1    1.09066031    -15.1416365    225    1    1.09176    1;
    179    1    0    0    0    0    1    1.09067577    -15.1363968    225    1    1.09176    1;
    180    2    0    0    0    0    1    1.106    -12.5833301    380    1    1.10676    0.9;
    181    1    181.5    39.9    0    0    1    1.03045303    -22.8863824    225    1    1.08889    1;
    182    1    32    21.4    0    0    1    1.0335418    -7.53929064    225    1    1.08889    0.986667;
    183    1    0    0    0    0    1    1.10474299    -6.96501596    380    1    1.10526    1.03947;
    184    1    0    0    0    0    1    1.10478796    -6.86773226    380    1    1.10526    1.03947;
    185    1    0    0    0    0    1    1.10478098    -6.87116136    380    1    1.10526    1.03947;
    186    1    0    0    0    0    1    1.10468548    -6.97480557    380    1    1.10526    1.03947;
    187    1    65.9    23.3    0    0    1    1.04725791    -14.2700868    225    1    1.08889    0.924444;
    188    1    5.4    1.4    0    0    1    1.01804862    -15.7308568    225    1    1.08889    0.986667;
    189    1    101.7    -4.3    0    0    1    1.06134926    -37.4718079    225    1    1.08444    1.00444;
    190    1    -6.8    -0.2    0    0    1    1.1018436    -9.27082575    380    1    1.10263    1.04211;
    191    1    -5.3    -0    0    0    1    1.10183713    -9.287798    380    1    1.10263    1.04211;
    192    1    0    0    0    0    1    1.04457932    -26.990897    225    1    1.08889    1.00444;
    193    1    0    0    0    0    1    1.05681418    -11.7044868    225    1    1.08889    0.977778;
    194    1    0    0    0    0    1    1.05681418    -11.7044868    225    1    1.08889    0.977778;
    195    1    135.5    19.2    0    0    1    1.04445588    -18.3455233    225    1    1.08889    0.968889;
    196    1    0    0    0    0    1    1.04945382    -8.4785075    225    1    1.08889    0.933333;
    197    1    0    0    0    0    1    1.04837841    -8.84197075    225    1    1.08889    0.933333;
    198    1    98.9    26.5    0    0    1    1.05655618    -34.7827565    225    1    1.08444    1.00444;
    199    1    299.2    -25.2    0    0    1    1.06314451    -31.7654169    225    1    1.08444    1.00444;
    200    1    0    0    0    0    1    1.06563029    -14.4050722    225    1    1.08889    0.977778;
    201    1    0    0    0    0    1    1.0828913    -20.9372094    225    1    1.08444    1.00444;
    202    1    211.2    31    0    0    1    1.0412184    -18.9969233    225    1    1.08889    0.951111;
    203    1    89.7    19.5    0    0    1    1.06684056    -25.4578479    225    1    1.08889    1.00444;
    204    1    92.2    26    0    0    1    1.01851424    -15.8861463    225    1    1.08889    0.986667;
    205    1    29.6    2.7    0    0    1    1.05412091    -28.4877736    225    1    1.08444    1.00889;
    206    1    0    0    0    0    1    1.05395541    -25.941997    380    1    1.10263    1.02895;
    207    1    127    40.5    0    0    1    1.06659429    -25.7727389    225    1    1.08889    1.00444;
    1829    2    0    0    0    0    1    1.054    -14.5312178    225    1    1.07859    0.95;
    208    1    0    0    0    0    1    1.05398765    -14.531314    225    1    1.08889    0.888889;
    209    1    310.2    64.5    0    80    1    1.06558651    -35.7528955    225    1    1.08444    1.00444;
    210    1    62.1    16.8    0    0    1    1.07489617    -3.00659397    225    1    1.09504    0.986667;
    211    1    91.9    12.1    0    0    1    1.06461909    -18.2145383    225    1    1.08444    1.00889;
    212    1    26.8    -0.9    0    0    1    1.06610141    -17.6945039    225    1    1.08444    1.00889;
    213    1    133    16.9    0    0    1    1.04507366    -9.84108966    225    1    1.08889    0.933333;
    215    1    0    0    0    0    1    1.10121028    -3.39355344    380    1    1.10526    1.03947;
    216    1    95.1    16.3    0    0    1    1.07645959    -11.8569055    380    1    1.10526    1.03947;
    217    1    0    0    0    0    1    1.04738603    -9.16213847    225    1    1.08889    0.933333;
    218    1    0    0    0    0    1    1.04637669    -9.41946086    225    1    1.08889    0.933333;
    219    1    34.4    10.1    0    0    1    1.07934033    -15.7554838    225    1    1.08444    1.00889;
    220    1    2.2    3.5    0    0    1    1.07954214    -15.7257087    225    1    1.08444    1.00889;
    221    1    -7.5    -7.3    0    0    1    1.06830212    -16.6238694    225    1    1.08444    1.00889;
    222    1    85.2    17.1    0    0    1    1.06402631    -26.1007103    225    1    1.08889    1.00444;
    223    1    38.1    1.2    0    0    1    1.06473471    -18.1605358    225    1    1.08444    1.00889;
    224    1    21.4    -2.1    0    0    1    1.06522684    -18.1178001    225    1    1.08444    1.00889;
    225    1    7    3.7    0    0    1    1.06410325    -13.6644686    150    1    1.10667    0.946667;
    1830    1    0    0    0    0    1    1.06263949    -45.1509158    225    1    1.08444    1.00444;
    226    1    0    0    0    0    1    1.06954303    -40.399182    380    1    1.10263    1.04211;
    227    1    180.4    -2    0    0    1    1.05147747    -20.8369081    225    1    1.09795    1;
    228    1    0    0    0    0    1    1.05254256    -18.3700668    380    1    1.10526    1.05019;
    229    1    127.1    31    0    0    1    1.05723919    -13.7473361    225    1    1.08889    0.911111;
    230    1    0    0    0    0    1    1.08287776    -6.27826571    380    1    1.10526    1;
    231    1    44.4    13.2    0    0    1    1.06315718    -29.5130722    225    1    1.08889    1.00444;
    232    1    49    11.1    0    0    1    1.02251874    -27.6896123    225    1    1.08889    1.00444;
    233    1    23.8    0.4    0    0    1    1.07202501    -20.1321236    225    1    1.08889    0.986667;
    234    1    0.4    0.5    0    0    1    1.07222269    -20.0597365    225    1    1.08889    0.986667;
    235    1    4    1    0    0    1    1.0760528    -27.7650679    225    1    1.08889    1.00444;
    236    1    30.4    23.5    0    0    1    1.07517351    -27.8000963    225    1    1.08889    1.00444;
    237    1    249.6    70    0    0    1    1.0348093    -24.9510531    225    1    1.08889    1.00444;
    238    1    0    0    0    0    1    1.04136587    -23.6231301    225    1    1.08889    1.00444;
    239    1    56.5    14.2    0    0    1    1.07259204    -29.0807372    225    1    1.08889    1.00444;
    240    1    58.6    15.7    0    0    1    1.07196572    -29.1273408    225    1    1.08889    1.00444;
    241    2    -50    0.8    0    0    1    1.00154573    -10.7298696    20    1    1.1    0.9;
    242    1    0    0    0    0    1    1.07135331    -16.6950661    150    1    1.08    0.966667;
    243    1    -9.2    0.5    0    0    1    1.11404735    5.65926622    380    1    1.11402    1.03947;
    244    1    28.9    24.3    0    0    1    1.11456506    3.69996617    380    1    1.11482    1.03947;
    245    1    18.2    8.4    0    0    1    1.11270337    5.40519273    380    1    1.11264    1.03947;
    246    1    -41.3    6.5    0    0    1    1.11488335    5.5450006    380    1    1.11483    1.03947;
    247    1    105.5    26.5    0    0    1    1.04636514    -26.6131326    225    1    1.08889    1.00444;
    248    1    0    0    0    0    1    1.06597602    -17.818089    225    1    1.08889    1;
    249    1    0    0    0    0    1    1.06543966    -18.2209335    225    1    1.08889    1;
    250    1    0    0    0    0    1    1.0740402    -17.430356    380    1    1.10526    1.05019;
    251    1    25.5    1.2    0    0    1    1.04489275    -9.90253221    225    1    1.08889    0.933333;
    252    1    171.9    30.6    0    0    1    1.06739957    -18.4984235    380    1    1.10526    1.03537;
    253    1    4.2    0    0    0    1    1.06522724    -26.7793161    225    1    1.08889    1.00444;
    254    1    0    0    0    0    1    1.06631482    -26.7209001    225    1    1.08889    1.00444;
    255    1    3.8    7.1    0    0    1    1.06539585    -27.0282173    225    1    1.08889    1.00444;
    256    1    0    0    0    80    1    1.06323603    -26.5382751    225    1    1.08889    1.00444;
    257    1    0    0    0    0    1    1.06745305    -20.9540479    380    1    1.10526    1.04211;
    258    1    0    0    0    0    1    1.06678171    -20.9893771    380    1    1.10526    1.04211;
    259    1    185.6    81.4    0    0    1    1.03032126    -16.2636847    225    1    1.08889    0.928889;
    260    1    119    80.1    0    0    1    1.07635902    -11.8639845    380    1    1.10526    1.03947;
    261    1    192.7    31.7    0    0    1    1.07968845    -35.9232561    225    1    1.08444    1.00444;
    262    1    15.3    3.5    0    0    1    1.04765552    -9.31751733    225    1    1.08889    0.933333;
    263    1    296.4    84.9    0    0    1    1.09810275    -7.27612331    380    1    1.10526    1.03947;
    267    1    355.7    111    0    0    1    1.08100397    -21.2621504    225    1    1.08444    1.00444;
    268    1    0    0    0    0    1    1.09195419    -18.0050877    380    1    1.10263    1.04211;
    269    1    0    0    0    0    1    1.09197504    -18.0017769    380    1    1.10263    1.04211;
    270    2    52.3    16.7    0    0    1    1.022    -12.1505333    20    1    1.06846    0.95;
    271    1    0    0    0    0    1    1.02315409    -11.9548947    225    1    1.08889    0.986667;
    272    1    252.4    112.7    0    0    1    1.04683064    -18.1889573    225    1    1.08889    0.986667;
    273    1    322.8    48.4    0    0    1    1.08650875    -24.5736273    380    1    1.10263    1.04211;
    274    1    74.3    48.9    0    0    1    1.04674953    -12.1623237    225    1    1.09611    0.986667;
    275    1    6.3    1.4    0    0    1    1.07036145    -18.2466306    225    1    1.08889    1.00444;
    276    1    48    8    0    0    1    1.05315292    -26.7663234    225    1    1.08889    1.00444;
    277    1    -0    -0    0    0    1    1.05327879    -26.6980135    225    1    1.08889    1.00444;
    278    1    0    0    0    0    1    1.08676092    -11.7751132    20    1    1.4    0.9;
    279    1    45    46.1    0    0    1    1.08116208    -11.0264842    225    1    1.08889    0.933333;
    280    1    253.3    26.3    0    0    1    1.09777366    -7.74151799    380    1    1.10526    1.03947;
    281    1    0    0    0    0    1    1.06826116    -16.1285245    225    1    1.08959    1;
    282    1    0    0    0    0    1    1.08025962    -15.5300465    225    1    1.08959    1;
    283    1    0    0    0    0    1    1.04095676    -21.6685448    150    1    1.08    0.966667;
    284    1    40.1    2.4    0    0    1    1.07641476    -28.1860775    225    1    1.08889    1.00444;
    285    1    110.1    18.7    0    0    1    1.06684875    -27.0925673    225    1    1.08889    1.00444;
    286    1    120.6    18.1    0    0    1    1.04985995    -14.5287391    225    1    1.08889    0.933333;
    287    1    35.9    8.7    0    0    1    1.06502952    -25.2677482    225    1    1.08444    1.00444;
    288    1    24.2    6.8    0    0    1    1.06504189    -25.266681    225    1    1.08444    1.00444;
    289    1    75.2    12.5    0    0    1    1.06544654    -25.9747424    225    1    1.08889    1.00444;
    290    1    176.7    47.6    0    0    1    1.06118297    -21.903201    225    1    1.08889    1.00444;
    291    1    0    0    0    0    1    1.07383067    -19.2044413    380    1    1.10526    1.04211;
    292    1    0    0    0    0    1    1.07418478    -19.0383594    380    1    1.10526    1.04211;
    293    1    0    0    0    0    1    1.08984508    -15.6978585    380    1    1.10526    1.04211;