function mpc = case2848rte_res
%CASE2848RTE_RES

%% MATPOWER Case Format : Version 2
mpc.version = '2';

%%-----  Power Flow Data  -----%%
%% system MVA base
mpc.baseMVA = 100;

%% bus data
%	bus_i	type	Pd	Qd	Gs	Bs	area	Vm	Va	baseKV	zone	Vmax	Vmin
mpc.bus = [
	1	1	20.6	0	0	0	1	1.05470451	-6.36026025	63	1	1.06349	0.936508;
	2	1	20.9	17.2	0	0	1	1.02159805	-10.0314739	225	1	1.08889	0.888889;
	3	1	0	0	0	0	1	1.05588778	-3.06269415	380	1	1.10263	1;
	4	1	0	0	0	0	1	1.03948873	-12.6263394	63	1	1.07937	0.920635;
	5	1	0.4	0.1	0	0	1	0.940804175	-6.95718135	45	1	1	0.888889;
	6	1	-2.3	-20.6	0	0	1	0.941885188	-6.97237052	45	1	1	0.888889;
	7	1	110.5	-25.5	0	0	1	1.05055953	-2.81195746	225	1	1.08444	1;
	8	1	44.7	1.5	0	0	1	1.0071444	-12.4478348	63	1	1.06349	0.968254;
	9	1	0	0	0	-21	1	1.04132742	-4.20175487	20	1	1.2	0.8;
	2966	1	0	0	0	-64	1	1.00669238	-7.54386103	20	1	1.2	0.8;
	10	1	0	0	0	0	1	1.05503926	-6.89751636	150	1	1.10667	0.9;
	11	1	31.7	-8.7	0	0	1	1.05818138	-7.16161165	225	1	1.08889	0.933333;
	2571	1	43.7	9.9	0	0	1	1.05428054	-6.88624521	225	1	1.08889	0.933333;
	12	1	0	0	0	0	1	1.06222639	-4.24366388	380	1	1.10526	1;
	13	1	0	0	0	0	1	1.03414703	-9.76584208	225	1	1.09067	1;
	14	1	-4.1	3.7	0	0	1	1.0215438	-9.38943889	63	1	1.06349	0.936508;
	15	1	9	-3.3	0	0	1	1.04614056	-8.39002583	63	1	1.06349	0.936508;
	16	1	120	6.3	0	0	1	1.06403453	-8.65058541	225	1	1.08889	0.933333;
	17	1	35	6.9	0	0	1	1.02935099	-12.4430442	225	1	1.08889	1;
	18	1	45	13.4	0	0	1	1.0075651	-9.91263833	225	1	1.08962	1;
	19	2	0	0	0	0	1	1.049	-8.246157	63	1	1.08661	0.920635;
	20	1	77.3	29.1	0	0	1	1.02929559	-12.4534549	225	1	1.08889	1;
	21	1	48.4	4	0	0	1	1.02562416	-6.46141723	225	1	1.08889	0.888889;
	22	1	4.6	-11.4	0	0	1	1.09924094	-10.8960448	63	1	1.07249	0.936508;
	23	1	33.3	-5.7	0	0	1	1.0301766	-9.27643868	63	1	1.06349	0.936508;
	24	1	0	0	0	0	1	1.03910213	-6.68968611	225	1	1.08889	1;
	2573	1	0	0	0	0	1	1.03910921	-6.69233236	225	1	1.08889	1;
	25	1	18	5.6	0	0	1	1.02598542	-6.49866219	225	1	1.08889	0.888889;
	26	1	1	-8	0	0	1	1.06325955	-1.70151153	225	1	1.09649	0.986667;
	27	1	22	-5.6	0	0	1	1.05527933	-8.77731812	63	1	1.06349	0.936508;
	28	1	-2.1	-0.1	0	0	1	1.01993061	-10.9621242	225	1	1.08889	1;
	2574	1	39.1	10	0	0	1	1.01988664	-10.9654056	225	1	1.08889	1;
	29	1	7.1	-2.6	0	0	1	1.03819592	-8.39782051	63	1	1.06349	0.936508;
	30	1	3.5	-40	0	0	1	1.03258071	-10.6681724	225	1	1.08889	1;
	31	1	7.7	-1.8	0	0	1	1.04938692	-6.36033215	63	1	1.07211	0.936508;
	32	1	12.1	2.1	0	0	1	1.04250787	-8.3128127	63	1	1.06349	0.936508;
	33	1	2.4	-0.4	0	0	1	0.940485632	-7.25819868	45	1	1	0.888889;
	34	1	-0	0	0	0	1	0.940865068	-6.95267437	45	1	1	0.888889;
	35	1	26	0.1	0	0	1	1.03234966	-13.096869	63	1	1.06349	0.968254;
	36	1	0.7	-4.1	0	0	1	0.988075344	-9.71068605	45	1	1	0.888889;
	37	1	9.3	-5.3	0	0	1	1.04678026	-7.87153779	63	1	1.06349	0.936508;
	39	1	78.4	-4.8	0	0	1	1.05160168	-6.13328762	225	1	1.08934	0.986667;
	40	1	25.1	-3.3	0	0	1	1.03063944	-8.10910421	225	1	1.08889	0.888889;
	41	1	80.4	7.4	0	0	1	1.06101612	-20.3127251	225	1	1.08444	1;
	42	1	37.8	2.9	0	0	1	1.05037433	-6.38658747	63	1	1.0637	0.936508;
	43	1	0	0	0	0	1	1.05574253	-5.20380629	225	1	1.08889	0.933333;
	44	1	29	-10	0	0	1	1.03096413	-13.3440232	63	1	1.06349	0.968254;
	45	1	97.4	-3	0	0	1	1.02760856	-8.13451439	225	1	1.08889	1;
	46	1	0	0	0	0	1	1.05587689	-3.0533477	380	1	1.10526	1;
	2575	1	0	0	0	0	1	1.05588619	-3.04946955	380	1	1.10526	1;
	47	1	21.3	-2.6	0	0	1	1.03304321	-5.13913816	63	1	1.06606	0.936508;
	48	1	-0.3	0.8	0	0	1	1.05369464	-6.66317682	63	1	1.06735	0.936508;
	49	1	11.6	3.2	0	0	1	1.0303725	-6.10178681	63	1	1.06349	0.968254;
	2576	1	9.3	4.7	0	0	1	1.0302496	-6.84730878	63	1	1.06349	0.968254;
	50	1	0	0	0	0	1	1.05751774	-5.77466455	225	1	1.08444	1;
	51	1	66.6	0	0	0	1	1.04138928	-9.34301115	225	1	1.08444	1;
	52	1	0	0	0	0	1	1.02965965	-12.3109264	225	1	1.08889	1;
	2942	1	53.9	11.2	0	0	1	1.0173724	-12.1166431	225	1	1.08889	1;
	53	2	7.9	-4.7	0	0	1	1.05	-9.86414738	63	1	1.06349	0.968254;
	54	1	0	0	0	0	1	1.06856453	-8.92739868	150	1	1.08	0.966667;
	55	1	40.5	8.5	0	0	1	1.01750681	-22.5640559	225	1	1.09459	1;
	56	1	0	0	0	0	1	1.02812553	-20.2896432	380	1	1.10526	1;
	57	1	80.2	-7.7	0	0	1	1.05169697	-9.38998418	225	1	1.08889	0.986667;
	58	1	0	0	0	-64	1	1.02139829	-6.61396294	20	1	1.2	0.8;
	59	1	35.3	-9.2	0	0	1	1.02572051	-6.37982068	225	1	1.08889	0.968889;
	60	1	58.9	2.6	0	0	1	1.02923842	-5.15337748	380	1	1.10526	1;
	61	1	5.5	1.7	0	0	1	1.05015512	-7.76188993	63	1	1.06349	0.936508;
	62	1	0.6	0.7	0	0	1	0.999480934	-13.6400437	63	1	1.06349	0.968254;
	63	1	28.6	4.1	0	0	1	0.999689018	-13.6374301	63	1	1.06349	0.968254;
	2577	1	0	0	0	0	1	0.999684281	-14.9082165	63	1	1.06349	0.968254;
	64	1	39.6	9.4	0	0	1	1.06725685	-5.84543613	225	1	1.08889	0.933333;
	65	1	0	0	0	0	1	0.999663036	-14.911645	63	1	1.06349	0.968254;
	66	1	12.5	-6.5	0	0	1	0.997367849	-6.30218048	45	1	1	0.888889;
	2578	2	0	0	0	0	1	1	-6.33871623	45	1	1	0.888889;
	67	1	0.4	3.2	0	0	1	1.0310041	-7.73031824	225	1	1.08889	0.888889;
	2579	1	42.5	7.2	0	0	1	1.0305907	-7.82315807	225	1	1.08889	0.888889;
	68	1	4.2	-2.2	0	0	1	1.03362169	-16.0862089	20	1	1.2	0.8;
	69	1	139.3	4.7	0	0	1	1.03360711	-16.0842327	225	1	1.08685	1;
	70	1	83.7	-8.3	0	0	1	1.034954	-11.8072491	225	1	1.08889	1;
	71	2	0	0	0	0	1	1.079	-9.57327932	150	1	1.10885	0.9;
	72	1	0	0	0	0	1	1.02511353	-10.8013537	225	1	1.08889	1;
	2580	1	0	0	0	0	1	1.02511332	-10.8013524	225	1	1.08889	1;
	74	1	0	0	0	-80	1	1.02511209	-10.8013455	225	1	1.08889	1;
	75	1	15.2	5.4	0	0	1	1.03893454	-5.27223907	63	1	1.06349	0.936508;
	76	2	0	0	0	0	1	0.953	-5.6021482	45	1	1	0.888889;
	77	1	5.7	-1.3	0	0	1	1.04829988	-9.04774903	63	1	1.08481	0.920635;
	78	1	7.8	5.8	0	0	1	1.02659198	-8.46669504	225	1	1.08889	1;
	79	1	14	-4.6	0	0	1	1.02059953	-23.2891819	63	1	1.07937	0.920635;
	80	1	7.1	-2.3	0	0	1	1.05709923	-10.2916875	63	1	1.08744	0.920635;
	81	1	0	0	0	0	1	1.05316553	-11.9798628	225	1	1.08889	1;
	82	1	59.6	24	0	0	1	1.03021446	-8.29389329	225	1	1.08889	0.888889;
	83	1	27.8	-7.5	0	0	1	1.01336719	-17.7847616	63	1	1.06349	0.967399;
	84	1	61.1	-4.5	0	0	1	1.00899018	-6.86088903	225	1	1.08889	0.968889;
	85	1	0	0	0	0	1	1.00582323	-4.80208944	380	1	1.10526	1;
	86	1	31.8	1	0	0	1	1.01449967	-15.6928264	63	1	1.06349	0.968254;
	87	1	22.8	-0.9	0	0	1	1.02594104	-7.92848947	63	1	1.06349	0.968254;
	88	1	2.1	0.8	0	0	1	1.01573779	-10.869702	63	1	1.06349	0.968254;
	89	1	30.5	6.3	0	0	1	0.995988807	-8.97109294	63	1	1.06349	0.968254;
	2581	1	32	12.1	0	0	1	0.995955047	-8.89879325	63	1	1.06349	0.968254;
	90	1	0	0	0	0	1	1.040345	-8.81928743	225	1	1.08444	1;
	2582	1	0	0	0	0	1	1.04046537	-8.81886427	225	1	1.08444	1;
	91	1	89.3	-15.7	0	0	1	1.03589901	-12.9847815	225	1	1.08889	1;
	92	1	6.4	-11.6	0	0	1	1.0773422	-4.35184779	225	1	1.09041	0.933333;
	93	2	0	0	0	0	1	1.078	-9.67303804	150	1	1.10907	0.9;
	94	1	37.7	57.2	0	0	1	1.03370721	-7.57980164	225	1	1.08444	1;
	2583	1	33.4	-0.5	0	0	1	1.0346576	-7.58567372	225	1	1.08444	1;
	95	1	0	0	0	0	1	1.03512475	-7.90435883	225	1	1.08889	0.977778;
	96	1	9	0.8	0	0	1	1.04308726	-6.05919907	225	1	1.08889	0.888889;
	97	1	35.8	4.5	0	0	1	1.00116437	-14.5753296	63	1	1.06349	0.968254;
	98	1	16.5	-8.7	0	0	1	1.05435999	-7.286601	225	1	1.08889	0.933333;
	99	1	28.6	5	0	0	1	1.03406228	-9.82270769	225	1	1.08889	1;
	2584	1	14.5	3.6	0	0	1	1.00686529	-10.0792535	225	1	1.08889	1;
	100	1	7.3	-5.1	0	0	1	1.05230707	-12.273616	225	1	1.08889	1;
	101	1	6.4	2.5	0	0	1	1.0477396	-5.78079308	225	1	1.08889	0.986667;
	102	1	0	0	0	0	1	1.03543967	-7.59799617	225	1	1.08889	0.888889;
	2585	1	0	0	0	0	1	1.03250713	-7.70002035	225	1	1.08889	0.888889;
	103	1	0	0	0	0	1	1.0354284	-5.85418445	380	1	1.10526	1;
	104	1	45.6	7	0	0	1	1.02012385	-11.1249228	225	1	1.08889	1;
	2586	1	19.1	5.8	0	-80	1	1.02519836	-9.92093	225	1	1.08889	1;
	105	1	10.1	-0.9	0	0	1	1.02240628	-11.7394731	63	1	1.07937	0.920635;
	106	1	0	0	0	0	1	1.05453368	-6.30318107	225	1	1.08889	0.977778;
	2587	1	0	0	0	0	1	1.05454939	-6.30342368	225	1	1.08889	0.977778;
	107	1	8.4	3.5	0	0	1	1.03341873	-9.33683218	63	1	1.06349	0.968254;
	108	1	39.7	-6.4	0	0	1	1.05327278	-6.84719485	225	1	1.08444	1;
	109	1	0	0	0	0	1	1.04505982	-5.67696413	225	1	1.08444	1;
	110	1	0	0	0	0	1	1.04245389	0.658977175	380	1	1.10263	1;
	111	1	62.2	-16.1	0	0	1	1.0449323	-5.74055859	225	1	1.08444	1;
	112	1	2.2	-1	0	0	1	1.00833098	-9.79513045	225	1	1.09035	1;
	2588	1	12.3	-2	0	0	1	1.00830403	-9.80171179	225	1	1.09035	1;
	113	1	5	-3.8	0	0	1	1.05835537	-2.95548794	225	1	1.08889	0.888889;
	114	1	30	0	0	0	1	1.0458544	-8.53778864	63	1	1.06349	0.936508;
	115	1	11.7	1.8	0	0	1	1.02989719	-7.47988734	225	1	1.08889	0.888889;
	116	1	51.9	15.9	0	0	1	1.00893367	-7.47468261	225	1	1.08889	0.888889;
	117	1	2.6	0.2	0	0	1	1.04056825	-7.7799212	63	1	1.06349	0.968254;
	118	1	38	3.1	0	0	1	1.00631183	-25.3303955	63	1	1.07937	0.920635;
	119	1	24	-7.3	0	0	1	1.027299	-15.3864114	63	1	1.06349	0.968254;
	120	2	0	0	0	0	1	1.038	-6.16337109	63	1	1.06863	0.936508;
	121	1	8	2.5	0	0	1	1.03115825	-18.493071	63	1	1.06349	0.968254;
	2589	1	9.9	3.5	0	0	1	1.03151661	-18.5003921	63	1	1.06349	0.968254;
	122	1	77.1	-3.9	0	0	1	1.02568006	-7.97134267	225	1	1.08889	1;
	123	1	21.2	4.4	0	0	1	1.03854288	-13.8649458	63	1	1.07937	0.920635;
	124	2	-0	-4.6	0	0	1	1.047	-10.0473018	63	1	1.08203	0.920635;
	125	1	0	0	0	0	1	1.03627903	-18.5616076	63	1	1.07937	0.920635;
	126	1	0	0	0	0	1	1.01319228	-12.8327278	225	1	1.08889	1;
	127	1	0	0	0	0	1	1.05062871	-12.8751281	380	1	1.10526	1;
	128	1	17.1	1.5	0	0	1	1.0548165	-6.43421144	63	1	1.06349	0.936508;
	129	2	18.2	12.2	0	0	1	1.029	-7.41886014	63	1	1.06349	0.936508;
	130	1	-13.2	16.1	0	0	1	1.0438103	-13.0828945	63	1	1.07937	0.920635;
	131	1	0	0	0	0	1	1.04997009	-11.3758136	225	1	1.08889	1;
	132	1	81.2	18.3	0	0	1	1.04787402	-10.5448012	225	1	1.08889	1;
	133	2	9.6	3.3	0	0	1	1.028	-21.4059685	63	1	1.06538	0.968254;
	134	2	0	0	0	0	1	1.042	-15.5753313	150	1	1.08	0.966667;
	135	2	-8.9	-4.4	0	0	1	1.066	-10.8988075	63	1	1.07937	0.920635;
	136	1	-10.6	-2.1	0	0	1	1.03361325	-4.09140516	225	1	1.08889	0.986667;
	137	1	14.1	-3.7	0	0	1	1.01208758	-12.7523012	63	1	1.06349	0.968254;
	138	1	11.3	-2.7	0	0	1	1.07000448	-4.36673677	225	1	1.08444	1;
	139	1	9.4	-2.2	0	0	1	1.0098168	-20.8608443	63	1	1.06349	0.968254;
	140	1	0	0	0	0	1	1.02957315	-2.43049638	380	1	1.10526	1;
	2590	1	0	0	0	0	1	1.03059016	-2.74964724	380	1	1.10526	1;
	141	1	11.1	4.5	0	0	1	1.02794966	-8.01355386	225	1	1.08889	1;
	142	1	7.2	5.2	0	0	1	1.03527316	-10.5477785	225	1	1.08889	1;
	143	1	20.9	-1.3	0	0	1	1.0156966	-14.3067099	63	1	1.06349	0.968254;
	144	1	33.4	6.5	0	0	1	1.06450753	-11.4790349	150	1	1.1	0.9;
	145	1	61.8	-3.3	0	0	1	1.03168242	-14.3088935	225	1	1.08925	1;
	146	2	0	-0	0	0	1	1.02	-10.9841089	225	1	1.08889	1;
	147	1	0	0	0	0	1	1.05726942	-7.25386653	225	1	1.08889	0.933333;
	148	1	0	0	0	0	1	1.06212699	-4.22135425	380	1	1.10526	1;
	2591	1	0	0	0	0	1	1.06215942	-4.21515075	380	1	1.10526	1;
	149	1	0	0	0	0	1	1.02963817	-12.4236936	225	1	1.08889	1;
	2592	1	61.8	10.2	0	0	1	1.01653799	-12.298358	225	1	1.08889	1;
	150	1	0	0	0	0	1	1.01066159	-5.39373687	225	1	1.08889	0.986667;
	151	1	9.8	4.5	0	0	1	1.02946506	-12.4340596	225	1	1.08889	1;
	152	1	0	0	0	0	1	1.06476781	-3.62848975	20	1	1.2	0.8;
	153	1	88.2	-7.1	0	0	1	1.05668343	-3.22112486	225	1	1.08889	0.933333;
	154	1	0	0	0	0	1	1.05807749	-1.38344837	380	1	1.10526	1;
	155	1	23.8	-12.3	0	0	1	1.02642423	-6.35525703	225	1	1.08889	1;
	156	1	18.2	-0.6	0	0	1	1.05933631	-7.56367076	63	1	1.06503	0.936508;
	157	1	0.4	0.2	0	0	1	1.03786549	-9.40822745	63	1	1.06349	0.968254;
	158	1	18.7	-2.5	0	0	1	1.02886987	-15.0271689	63	1	1.07937	0.920635;
	159	1	19.2	-1	0	0	1	1.01435913	-16.3125649	63	1	1.06349	0.968254;
	160	1	4	0.2	0	0	1	1.05293054	-8.69416601	63	1	1.06349	0.936508;
	161	2	0	0	0	0	1	1.063	-15.1026266	63	1	1.15	0.8;
	162	1	2.8	3.9	0	0	1	1.03530426	-11.2207236	225	1	1.09053	1;
	163	1	0	0	0	0	1	1.03097224	-23.8741595	63	1	1.06349	0.968254;
	164	1	68.7	-27.8	0	0	1	1.04298945	-15.2894294	225	1	1.09791	1;
	165	1	70.9	-7.8	0	0	1	1.03980018	-3.98818115	225	1	1.08889	0.986667;
	166	1	35.7	1.2	0	0	1	1.0138269	-10.9079233	63	1	1.06349	0.968254;
	167	1	66.9	15.7	0	0	1	1.03414515	-9.76053654	225	1	1.09067	1;
	168	1	10.2	-5.9	0	0	1	1.05143246	-8.2137936	63	1	1.06349	0.936508;
	169	1	22.5	-8.3	0	0	1	1.03977254	-11.0520789	63	1	1.06349	0.968254;
	170	1	3.1	1.2	0	0	1	1.04549514	-7.92681579	63	1	1.06822	0.936508;
	171	1	103.9	36.4	0	0	1	1.0279787	-8.48321361	225	1	1.08889	0.924444;
	172	2	-0	0	0	0	1	1.03117205	-7.46842715	63	1	1.06349	0.968254;
	173	1	46.9	-16.3	0	0	1	1.05679354	-0.866805811	225	1	1.09616	0.986667;
	174	1	0	0	0	0	1	1.05916881	-0.289733653	380	1	1.10526	1;
	175	1	83.4	-19.9	0	0	1	1.05104139	-13.6865223	225	1	1.08444	1;
	176	1	0	0	0	-64	1	1.00911929	-19.4666261	20	1	1.2	0.8;
	177	1	0	0	0	0	1	0.98594024	-20.928275	63	1	1.06349	0.960855;
	178	1	0	0	0	0	1	1.05933935	-19.1624768	225	1	1.08444	1;
	179	1	0	0	0	0	1	1.05477538	-16.7253976	380	1	1.10263	1;
	180	1	-0.3	-5.1	0	0	1	1.05732887	-3.22758455	225	1	1.08889	0.933333;
	181	1	-0.2	-8.9	0	0	1	0.995614012	-6.48033227	45	1	1.01652	0.888889;
	182	1	0	0	0	0	1	1.05049999	-7.73143473	63	1	1.06349	0.936508;
	183	1	0	0	0	0	1	1.0560569	-5.44756297	225	1	1.08889	0.933333;
	184	2	0	0	0	0	1	1.056	-5.71662667	225	1	1.08889	0.977778;
	185	1	12.8	-5.2	0	0	1	1.03613008	-8.35030009	63	1	1.06349	0.936508;
	186	1	-3.5	-3.5	0	0	1	1.03237097	0.253816714	225	1	1.09862	1;
	187	1	0	0	0	0	1	1.02767291	0.21536319	380	1	1.10526	1;
	2593	1	0	0	0	0	1	1.02770372	0.226477612	380	1	1.10526	1;
	2594	1	0	0	0	0	1	1.02763175	0.255639654	380	1	1.10526	1;
	2595	1	0	0	0	0	1	1.02767555	0.242475236	380	1	1.10526	1;
	188	1	0	0	0	0	1	1.05681566	-0.865700194	225	1	1.09683	0.986667;
	2596	1	0	0	0	0	1	1.05670223	-0.78732498	225	1	1.09683	0.986667;
	189	1	0	0	0	0	1	1.05905251	-0.219928383	380	1	1.10526	1;
	190	1	8.4	-10.3	0	0	1	1.02956968	-6.56343779	225	1	1.08889	0.968889;
	191	1	34.1	-3.5	0	0	1	1.01018328	-24.5482818	63	1	1.06349	0.968254;
	192	1	29.2	4.5	0	0	1	1.06093648	-20.2640527	225	1	1.08444	1;
	193	1	11.4	4.2	0	0	1	1.04148904	-2.42922626	380	1	1.10526	1;
	194	1	0	0	0	0	1	1.04462712	-7.50926791	63	1	1.06349	0.936508;
	2597	1	0	0	0	0	1	1.03732594	-7.31127368	63	1	1.06349	0.936508;
	195	1	0	0	0	0	1	1.0637091	-4.7695441	225	1	1.08889	0.933333;
	196	1	0	0	0	0	1	1.05644678	-2.04855377	380	1	1.10526	1;
	197	1	3.7	13.7	0	0	1	1.03863902	-6.32659887	63	1	1.06349	0.968254;
	198	1	0	0	0	0	1	1.06479303	-3.48160851	225	1	1.08444	1;
	199	1	152.4	6.2	0	0	1	1.04953137	-2.60802011	225	1	1.08444	1;
	200	1	29.9	3	0	0	1	1.06629546	-5.13765427	225	1	1.08889	0.933333;
	2598	1	35	3.5	0	0	1	1.06628254	-5.14301503	225	1	1.08889	0.933333;
	201	1	24.1	-16.4	0	0	1	1.03534237	-11.219724	225	1	1.09027	1;
	202	1	0	0	0	0	1	1.08132349	-5.1216299	225	1	1.09529	1;
	2599	1	0	0	0	0	1	1.08132151	-5.12160798	225	1	1.09529	1;
	203	1	36.8	5.3	0	0	1	1.02557445	-7.64636182	225	1	1.08889	1;
	204	1	20.4	-4.2	0	0	1	1.03638185	-8.61147566	225	1	1.08889	1;
	205	1	0	0	0	0	1	1.02744582	-7.67790476	63	1	1.06349	0.968254;
	206	1	0	0	0	0	1	1.06771823	-4.54364864	225	1	1.08444	1;
	207	1	6.2	2.7	0	0	1	1.02465185	-14.0882922	63	1	1.06349	0.968254;
	208	1	9.6	1	0	0	1	1.02994058	-19.7366088	63	1	1.07937	0.920635;
	209	1	25.7	-12.7	0	0	1	1.04970843	-8.80808298	63	1	1.06349	0.936508;
	210	1	0	0	0	0	1	1.02059953	-23.2891819	63	1	1.07937	0.920635;
	211	1	26.5	-2.3	0	0	1	1.02597726	-8.52640446	225	1	1.08889	1;
	212	1	0	0	0	0	1	1.05498817	-12.5328857	225	1	1.08444	1;
	213	1	0	0	0	0	1	1.05493329	-12.5392418	225	1	1.08444	1;
	2600	1	0	0	0	0	1	1.05464016	-7.54127381	225	1	1.08444	1;
	214	1	0	0	0	0	1	1.05364376	-6.10352997	380	1	1.10263	1;
	215	1	1.5	-0	0	0	1	1.05129954	-7.00123665	63	1	1.06418	0.936508;
	216	1	101.1	-8.8	0	0	1	1.00928168	-7.46424503	225	1	1.08889	0.888889;
	217	1	0	0	0	0	1	1.03235862	0.253693683	225	1	1.09861	1;
	218	1	0	0	0	0	1	1.02776341	0.173492663	380	1	1.10526	1;
	219	1	17.3	3.3	0	0	1	1.04433201	-7.02045265	225	1	1.08889	0.986667;
	220	2	0	0	0	0	1	1.039	-21.2167954	63	1	1.06349	0.968254;
	221	1	21.6	-6.3	0	0	1	1.02642981	-11.1643804	63	1	1.07937	0.920635;
	222	1	0	0	0	0	1	1.05780953	-10.4524178	225	1	1.08889	1;
	223	1	0	0	0	0	1	1.04009075	-16.9622415	225	1	1.08444	1;
	2601	1	0	0	0	0	1	1.04008346	-16.9620446	225	1	1.08444	1;
	2602	1	0	0	0	0	1	1.04008346	-16.9620446	225	1	1.08444	1;
	224	1	60.6	-5.7	0	0	1	1.04008243	-16.9620169	225	1	1.08444	1;
	225	2	0	0	0	0	1	1.05	-3.10214636	20	1	1.2	0.8;
	226	1	0	0	0	0	1	1.05338904	-5.00499633	225	1	1.08889	0.933333;
	227	1	6.2	7.3	0	0	1	1.04243584	-7.06685813	225	1	1.08889	0.986667;
	228	1	0	0	0	0	1	1.07939497	-5.60220333	20	1	1.2	0.8;
	229	1	0	0	0	0	1	1.08080152	-5.32938736	225	1	1.0904	1;
	230	1	0	0	0	0	1	1.07744918	-3.93390957	380	1	1.10526	1;
	231	2	0	0	0	0	1	1.04	-8.31921532	225	1	1.08889	0.933333;
	232	1	11.4	0.6	0	0	1	1.01477754	-10.0653594	63	1	1.06349	0.968254;
	2603	1	9	0.1	0	0	1	1.04597647	-10.3733589	63	1	1.06349	0.968254;
	233	1	0	0	0	0	1	1.06706681	-9.05636753	150	1	1.08	0.966667;
	234	1	1.2	-0.9	0	0	1	1.02054122	-10.8244861	225	1	1.08889	1;
	2604	1	37.3	-0.1	0	0	1	1.02032047	-10.8793416	225	1	1.08889	1;
	235	2	0	0	0	0	1	1.053	-6.43863113	63	1	1.06349	0.936508;
	236	2	26.3	1.1	0	0	1	1.024	-10.9378288	63	1	1.06349	0.968254;
	237	1	13.4	-0.3	0	0	1	1.05558674	-7.39858046	63	1	1.06349	0.936508;
	238	1	34.2	0.7	0	0	1	1.0092592	-6.79883804	225	1	1.08889	0.888889;
	240	2	0	0	0	0	1	1.075	-4.12756229	380	1	1.10694	1;
	241	1	9.9	3.2	0	0	1	1.02873473	-4.52871197	63	1	1.06721	0.936508;
	242	1	29.3	2	0	0	1	1.04028444	-11.3554523	63	1	1.06349	0.968254;
	243	1	94.1	-4.7	0	0	1	1.02598513	-8.50184886	225	1	1.08889	1;
	244	1	31.6	4.2	0	0	1	1.01961859	-17.8061602	63	1	1.06349	0.968254;
	245	1	20.3	9.9	0	0	1	1.0351867	-4.33448837	225	1	1.08889	0.986667;
	246	1	0	0	0	0	1	1.05054653	-0.241726798	380	1	1.10526	1;
	2609	1	0	0	0	0	1	1.05451237	-1.05701437	380	1	1.10526	1;
	2610	1	0	0	0	0	1	1.05054547	-0.248379447	380	1	1.10526	1;
	2611	1	0	0	0	0	1	1.05419494	-0.972641972	380	1	1.10526	1;
	247	1	6	-0.9	0	0	1	1.04436077	-6.15893818	225	1	1.08889	0.924444;
	248	1	17.4	1.8	0	0	1	1.04953694	-7.88432178	63	1	1.06349	0.936508;
	249	1	9.4	-0.6	0	0	1	1.02428281	-10.3185431	63	1	1.06349	0.936508;
	250	1	4.2	1.9	0	0	1	1.05054589	-9.84468892	225	1	1.08889	0.986667;
	251	1	62.1	20.2	0	0	1	1.03082654	-12.769336	225	1	1.08684	1;
	252	2	5.5	4.5	0	0	1	0.998	-4.67841347	45	1	1	0.888889;
	253	1	-2.8	-1.5	0	0	1	1.02076418	2.78482305	380	1	1.10263	1;
	254	1	-2.8	-1.4	0	0	1	1.02097428	2.71318785	380	1	1.10263	1;
	255	1	8.3	-7.3	0	0	1	1.0446713	-7.28542996	63	1	1.06754	0.936508;
	256	1	0	0	0	0	1	1.019401	-11.317503	225	1	1.08889	1;
	257	1	0	0	0	0	1	1.05621234	-6.85256974	225	1	1.08889	0.977778;
	2612	1	0	0	0	0	1	1.05621234	-6.85256974	225	1	1.08889	0.977778;
	258	1	19.3	-3.2	0	0	1	1.02754964	-6.85362262	225	1	1.08889	0.968889;
	259	2	0	0	0	0	1	1.071	-1.35493987	20	1	1.2	0.8;
	2613	2	0	0	0	0	1	1.05919668	-0.0597459097	20	1	1.2	0.8;
	2614	2	0	0	0	0	1	1.05919668	-0.0597459097	20	1	1.2	0.8;
	260	1	0	0	0	0	1	1.06806055	-3.36659477	225	1	1.08889	0.933333;
	2615	1	0	0	0	0	1	1.05919668	-0.0597459097	225	1	1.08889	0.933333;
	261	1	50	4.4	0	0	1	1.04016711	-8.83480089	225	1	1.08489	1;
	262	2	13.9	-2.1	0	0	1	0.998	-5.27675804	45	1	1	0.888889;
	263	1	19	1.9	0	0	1	1.04040138	-9.54025391	20	1	1.2	0.8;
	2616	1	17.5	-0.7	0	0	1	1.04042341	-9.53969872	20	1	1.2	0.8;
	2617	1	10.8	-3.5	0	0	1	1.040451	-9.53685097	20	1	1.2	0.8;
	264	1	134	-1.7	0	0	1	1.04043108	-9.53192584	225	1	1.08444	1;
	265	1	15.2	-2.7	0	0	1	1.03208141	-12.161925	63	1	1.06349	0.968254;
	266	1	0	0	0	0	1	1.05193593	-7.88661858	225	1	1.08889	0.977778;
	267	1	0	0	0	0	1	1.04676319	-3.09105997	225	1	1.08444	1;
	268	1	15.8	-8.1	0	0	1	1.05048796	-8.75063363	63	1	1.06349	0.936508;
	269	1	28.5	3.5	0	0	1	1.00771906	-23.5657645	63	1	1.06349	0.968254;
	270	1	59.2	-3	0	0	1	1.03326164	-9.27054108	225	1	1.08889	0.951111;
	271	2	0	0	0	0	1	1.052	-5.79257202	63	1	1.06349	0.936508;
	272	1	40.2	1.2	0	0	1	1.02576397	-9.86289534	225	1	1.08889	1;
	273	1	15.7	-9.2	0	0	1	1.05014107	-10.0524153	225	1	1.08889	0.986667;
	274	2	0	0	0	0	1	1.054	-5.53838669	63	1	1.06349	0.936508;
	275	2	0	0	0	0	1	1.055	-5.10333903	63	1	1.06349	0.936508;
	276	1	9.7	-2.8	0	0	1	1.05944919	-10.5048788	63	1	1.09138	0.920635;
	277	1	11.5	-2	0	0	1	1.03384331	-7.08209663	63	1	1.06725	0.936508;
	279	1	15.4	-1.6	0	0	1	1.05819832	-19.3389221	225	1	1.08444	1;
	280	1	0	0	0	0	1	1.05575769	-17.5270418	380	1	1.10263	1;
	281	1	32.8	-2.2	0	0	1	1.02759774	-7.98286774	63	1	1.06349	0.968254;
	282	1	54.5	4.4	0	0	1	1.02553794	-10.0223554	225	1	1.08889	1;
	283	2	0	0	0	0	1	1.024	-7.14398949	225	1	1.08889	0.888889;
	284	1	0	0	0	0	1	1.02399801	-7.14489961	225	1	1.08889	0.888889;
	285	2	0	0	0	0	1	1.058	-4.69625909	63	1	1.06349	0.936508;
	2618	2	0	0	0	0	1	1.054	-6.59639422	63	1	1.06349	0.936508;
	286	1	158.8	28.8	0	0	1	1.04311113	-9.7091372	225	1	1.08444	1;
	287	1	0	0	0	0	1	1.04334754	-5.87580579	20	1	1.2	0.8;
	2619	1	0	0	0	0	1	1.04334754	-5.87580579	20	1	1.2	0.8;
	2620	1	0	-0	0	0	1	1.04334754	-5.87580579	20	1	1.2	0.8;
	288	1	76.7	12.3	0	0	1	1.04230523	-5.87580579	63	1	1.06349	0.936508;
	289	1	33.8	11.7	0	0	1	1.06147526	-1.60951567	225	1	1.09508	0.986667;
	290	1	67.1	9.9	0	0	1	1.04100576	-9.75662474	225	1	1.08444	1;
	2621	1	19.6	-0.3	0	0	1	1.04133273	-9.35368864	225	1	1.08444	1;
	291	2	0	0	0	0	1	1.054	-2.43517781	20	1	1.2	0.8;
	2622	2	0	0	0	0	1	1.045	-1.8862262	20	1	1.2	0.8;
	292	1	0	0	0	0	1	1.04798614	-6.05414814	63	1	1.06349	0.936508;
	2623	1	0	0	0	0	1	1.05222746	-5.47010793	63	1	1.06349	0.936508;
	293	1	0	0	0	0	1	1.05876049	-0.0544054627	225	1	1.08889	0.933333;
	3015	1	0	0	0	0	1	1.0639036	-4.14348361	225	1	1.08889	0.933333;
	294	1	0	0	0	0	1	1.05981742	-0.791170714	380	1	1.10526	1;
	295	1	39.3	1.4	0	0	1	1.04771842	-8.28129357	63	1	1.06349	0.936508;
	296	1	7.2	-1.6	0	0	1	1.03879747	-8.34554109	63	1	1.06349	0.936508;
	297	1	55.3	-9.8	0	0	1	1.0793535	-5.34439486	380	1	1.10526	1;
	298	2	0	0	0	0	1	1.06	2.71945406	20	1	1.2	0.8;
	2624	2	0	0	0	0	1	1.07	-1.91953091	20	1	1.2	0.8;
	2625	2	0	0	0	0	1	1.06	2.71945406	20	1	1.2	0.8;
	299	1	0	0	0	0	1	1.06679313	-3.62009559	225	1	1.08889	0.933333;
	2626	1	0	0	0	0	1	1.06008295	0.381752231	225	1	1.08889	0.933333;
	300	1	8.3	-6.7	0	0	1	1.02919297	-21.3165997	63	1	1.07937	0.920635;
	301	1	62	20.8	0	0	1	1.03473777	-7.479312	225	1	1.08444	1;
	2627	1	1.1	4.8	0	0	1	1.03520169	-7.41861067	225	1	1.08444	1;
	302	1	-0	-1.1	0	0	1	1.01362663	-20.6276677	63	1	1.06349	0.968254;
	303	1	9.6	5.7	0	0	1	1.04178933	-8.92487131	225	1	1.08444	1;
	304	1	11.1	-0.5	0	0	1	1.03305897	-9.64121228	63	1	1.06349	0.968254;
	305	2	0	0	0	0	1	1.03	-6.64247945	63	1	1.06453	0.968254;
	2628	2	0	0	0	0	1	1.031	-5.64711187	63	1	1.06453	0.968254;
	306	1	50.9	4.3	0	0	1	1.03536579	-8.28932074	225	1	1.09106	1;
	307	1	13.1	1.3	0	0	1	1.04137573	-9.67125431	225	1	1.08444	1;
	2629	1	22.3	0.4	0	0	1	1.04107005	-9.70445982	225	1	1.08444	1;
	308	1	1.5	0.8	0	0	1	1.04006117	-6.7075663	150	1	1.10667	0.946667;
	309	1	-0	-4.2	0	0	1	1.0354244	-9.3609941	63	1	1.06349	0.968254;
	310	2	1.6	-2.6	0	0	1	1.067	-8.96595753	63	1	1.08891	0.920635;
	311	1	0	0	0	0	1	1.0497472	-14.8135582	225	1	1.08444	1;
	312	1	0	0	0	0	1	1.0547746	-12.2292042	380	1	1.10263	1;
	313	2	0	0	0	0	1	1.035	-18.2480673	63	1	1.07937	0.920635;
	314	2	0	0	0	0	1	0.986	-5.75436134	45	1	1.00087	0.888889;
	315	1	1.2	-1.2	0	0	1	1.03882811	-9.52195264	63	1	1.06349	0.968254;
	317	1	0	0	0	0	1	1.0524413	-11.855758	63	1	1.07937	0.920635;
	318	1	-0.6	0.1	0	0	1	1.03915236	-9.70574599	63	1	1.06349	0.968254;
	319	1	11.8	-2.1	0	0	1	1.00982622	-23.3264943	63	1	1.06349	0.968254;
	2630	1	20.8	-3.4	0	0	1	1.00932688	-23.4065328	63	1	1.06349	0.968254;
	2631	1	17.6	4.1	0	0	1	1.00755096	-23.3815011	63	1	1.06349	0.968254;
	320	1	94.8	-14	0	0	1	1.03819988	-14.7618779	225	1	1.09934	1;
	321	1	0	0	0	0	1	1.02645596	-11.8179555	380	1	1.10526	1;
	322	1	42	-1.2	0	0	1	1.04310728	-6.41747808	225	1	1.08889	0.911111;
	323	1	0	0	0	0	1	1.04265947	-3.0955099	380	1	1.10526	1;
	324	1	19.1	2.6	0	0	1	1.02963028	-12.425714	225	1	1.08889	1;
	2632	1	21.8	2.2	0	0	1	1.01660761	-12.2920077	225	1	1.08889	1;
	325	1	17.2	-0.6	0	0	1	1.0451015	-6.78959052	225	1	1.08889	0.986667;
	2633	1	-1.4	-0.6	0	0	1	1.04526716	-6.72908272	225	1	1.08889	0.986667;
	326	2	8.1	-1.1	0	0	1	1.06	-10.7597747	63	1	1.07937	0.920635;
	2634	2	0	0	0	0	1	1.06	-10.5975354	63	1	1.07937	0.920635;
	327	1	-0.1	-0.9	0	0	1	1.01681734	-22.7945023	63	1	1.06349	0.968254;
	328	1	29.3	-7.3	0	0	1	1.02411925	-22.110821	63	1	1.06349	0.968254;
	329	1	22.9	10.7	0	0	1	1.00588009	-11.7036689	63	1	1.06349	0.968254;
	2635	1	17.9	10.2	0	0	1	1.00762295	-11.6188428	63	1	1.06349	0.968254;
	330	1	35.4	-3	0	0	1	1.04998814	-9.32764664	63	1	1.06405	0.968254;
	331	1	16.2	-2.5	0	0	1	1.02613181	-19.2915352	63	1	1.06349	0.968254;
	2636	1	20.6	-1	0	0	1	1.02503918	-19.3540211	63	1	1.06349	0.968254;
	332	1	0.7	-2.5	0	0	1	1.03197749	-9.28722557	225	1	1.08889	1;
	2637	1	-8.9	1.3	0	0	1	1.0319251	-9.26854586	225	1	1.08889	1;
	333	1	0	0	0	0	1	1.0318441	-9.80125752	225	1	1.08889	1;
	2638	1	89.4	-32.3	0	0	1	1.02719771	-10.4241481	225	1	1.08889	1;
	334	1	40.6	6.7	0	0	1	1.03002599	-10.1767512	225	1	1.08889	1;
	2639	1	33	6.1	0	0	1	1.03045014	-10.1428087	225	1	1.08889	1;
	335	2	5.7	-0.1	0	0	1	1.013	-10.677753	20	1	1.2	0.8;
	336	1	0	0	0	0	1	1.07184716	-11.9132935	150	1	1.08	0.966667;
	337	1	25.6	1	0	0	1	1.04486399	-11.9724157	63	1	1.07937	0.920635;
	338	1	9.4	-1.8	0	0	1	1.04638019	0.623154876	380	1	1.11579	1;
	339	1	25.4	0.5	0	0	1	1.05835758	-0.910648302	380	1	1.11674	1;
	340	1	12.5	-9.7	0	0	1	1.03997556	1.93285211	380	1	1.11579	1;
	341	1	-53.5	-23.1	0	0	1	1.04037761	2.26921232	380	1	1.11587	1;
	342	1	47.2	8.5	0	0	1	1.01966553	-11.0160892	225	1	1.08889	1;
	343	1	0	0	0	0	1	1.0335483	-9.34075637	63	1	1.06349	0.968254;
	344	1	21.4	-2.2	0	0	1	1.03626782	-9.89613657	63	1	1.06349	0.968254;
	345	1	16.2	-2.1	0	0	1	1.0176371	-25.7504262	63	1	1.06349	0.968254;
	346	1	7.9	1.8	0	0	1	0.997830855	-8.98363992	63	1	1.06349	0.968254;
	347	1	0	0	0	-64	1	0.946295016	-12.7175962	20	1	1.2	0.8;
	2640	1	0	0	0	-64	1	0.947749801	-12.9474884	20	1	1.2	0.8;
	348	1	0	0	0	0	1	1.03152514	-12.709751	225	1	1.08889	1;
	2641	1	0	0	0	0	1	1.031344	-12.5449585	225	1	1.08889	1;
	349	1	0	0	0	0	1	1.04250968	-11.1232865	380	1	1.10526	1;
	350	1	32.1	5.4	0	0	1	1.06350343	-4.21674399	225	1	1.08889	0.933333;
	351	1	-0.8	-1	0	0	1	1.04781106	-8.26336635	63	1	1.06349	0.936508;
	352	1	81.7	-8.9	0	0	1	1.0371005	-6.21673879	380	1	1.10526	1;
	353	1	11.4	-0.4	0	0	1	1.05573722	-8.26380274	63	1	1.06349	0.936508;
	354	1	20	-8	0	0	1	1.02225974	-23.4858622	63	1	1.07937	0.920635;
	355	1	0	0	0	0	1	1.03399138	-11.6318321	20	1	1.2	0.8;
	2943	1	0	0	0	-58	1	0.96263456	-11.8451321	20	1	1.2	0.8;
	2944	1	0	0	0	-58	1	0.965880421	-11.7328993	20	1	1.2	0.8;
	2945	1	0	0	0	-58	1	0.96706677	-12.2455686	20	1	1.2	0.8;
	356	1	0	0	0	0	1	1.02982757	-10.782597	225	1	1.08889	1;
	2642	1	0	0	0	0	1	1.02509169	-10.9250916	225	1	1.08889	1;
	2643	1	3.4	-0.6	0	0	1	1.02826542	-10.8404141	225	1	1.08889	1;
	2644	1	4.8	2	0	0	1	1.02551408	-10.9327584	225	1	1.08889	1;
	357	1	0	0	0	0	1	1.02987521	-7.45782392	380	1	1.10526	1;
	2645	1	0	0	0	0	1	1.02905624	-7.5044561	380	1	1.10526	1;
	358	1	78.5	20.8	0	0	1	1.04577361	-5.88502578	225	1	1.08889	0.928889;
	359	1	96.4	-58.1	0	0	1	1.07941472	-5.3505214	380	1	1.10526	1;
	360	1	16.4	-0.7	0	0	1	1.00996187	-12.6027417	63	1	1.06349	0.968254;
	361	1	89.4	3.6	0	0	1	1.04578212	-9.14126099	225	1	1.08444	1;
	362	1	29.3	0.1	0	0	1	1.0638972	-4.05679808	225	1	1.08889	0.933333;
	363	1	0	0	0	0	1	1.04046745	-4.91714527	63	1	1.06349	0.936508;
	364	1	0	0	0	0	1	1.05537939	-1.23670309	380	1	1.10526	1;
	2963	1	0	0	0	0	1	1.05485549	-1.14210553	380	1	1.10526	1;
	365	1	196.9	18.5	0	0	1	1.04193558	-3.00924075	225	1	1.08444	1;
	366	1	0	0	0	0	1	1.03973605	-1.01148252	380	1	1.10263	1;
	2646	1	0	0	0	0	1	1.03973897	-1.00936792	380	1	1.10263	1;
	367	2	49.6	25.1	0	0	1	1.036	-7.47059206	20	1	1.2	0.8;
	368	1	0	0	0	0	1	1.0569779	-6.54058321	225	1	1.08889	0.986667;
	369	1	151.7	47.7	0	0	1	1.04264203	-7.13988673	225	1	1.08889	0.986667;
	370	1	0.2	-0.4	0	0	1	1.05050245	-7.73161553	63	1	1.06349	0.936508;
	371	2	0	0	0	0	1	1.055	-4.31970544	63	1	1.06349	0.936508;
	372	1	152.6	-17.6	0	0	1	1.05198846	-1.76827464	380	1	1.10263	1;
	373	1	-3.5	-9.1	0	0	1	1.05431747	-3.49781834	225	1	1.09613	0.986667;
	374	1	-0	0	0	0	1	1.05094068	-6.13108513	63	1	1.06349	0.936508;
	375	1	7	-5.3	0	0	1	1.03247264	-7.22940142	63	1	1.06349	0.936508;
	376	1	0.9	-2.6	0	0	1	1.03686128	-7.46393735	225	1	1.08889	1;
	377	1	25.5	-9.3	0	0	1	1.02507306	-10.9083324	225	1	1.08889	1;
	378	1	8.5	-2.6	0	0	1	1.04240576	-6.73612704	63	1	1.06349	0.936508;
	379	1	0	0	0	0	1	1.07167299	-3.48076638	20	1	1.2	0.8;
	380	1	0	0	0	0	1	1.03027494	-4.35892257	63	1	1.06977	0.936508;
	381	1	0	0	0	0	1	1.06171048	-3.0114405	225	1	1.08889	0.933333;
	382	1	0	0	0	0	1	1.05546299	-0.836845041	380	1	1.10526	1;
	383	1	0.3	-0	0	0	1	1.03434377	-6.6237804	63	1	1.06349	0.936508;
	384	1	0	0	0	0	1	1.07794645	-5.78078419	225	1	1.09043	1;
	2648	1	0	0	0	0	1	1.08102975	-5.33209161	225	1	1.09043	1;
	385	1	0	0	0	0	1	1.03811863	-15.8332195	150	1	1.08	0.966667;
	386	1	24.4	3.3	0	0	1	1.03255916	-9.54456917	225	1	1.08889	1;
	2649	1	69	15.3	0	0	1	1.02287598	-8.85186903	225	1	1.08889	1;
	387	1	24.8	-1.9	0	0	1	1.06179396	-7.46350135	225	1	1.08889	0.933333;
	388	1	17.8	-0.2	0	0	1	1.04205233	-4.90431623	225	1	1.08444	1;
	2650	1	10.6	0.8	0	0	1	1.04205512	-4.90354729	225	1	1.08444	1;
	389	1	54.6	-5.2	0	0	1	1.02758645	-8.20726546	225	1	1.08889	1;
	390	1	0	0	0	0	1	1.03738439	-6.72914867	20	1	1.2	0.8;
	391	1	96.5	-19.6	0	0	1	1.03896174	-6.25409152	225	1	1.08889	1;
	392	1	0	0	0	0	1	1.03668625	-4.69243785	380	1	1.10526	1;
	2651	1	0	0	0	0	1	1.03687079	-4.63124081	380	1	1.10526	1;
	2652	1	0	0	0	0	1	1.04037108	-2.83788635	380	1	1.10526	1;
	393	1	11	-0.9	0	0	1	1.02907041	-4.8581785	63	1	1.06755	0.936508;
	394	1	0	0	0	0	1	1.036779	-4.6618401	380	1	1.10526	1;
	395	1	167.4	3.6	0	0	1	1.04534158	-9.4732625	225	1	1.08444	1;
	396	1	0	0	0	0	1	1.03160304	-5.4202903	380	1	1.10526	1;
	397	1	35.1	4.8	0	0	1	1.03417435	-9.70995027	225	1	1.08889	1;
	2653	1	0	0	0	0	1	1.02452563	-10.978181	225	1	1.08889	1;
	398	1	0	0	0	0	1	1.06061597	-2.91974073	380	1	1.10526	1;