function mpc = case2383wp_res
%CASE2383WP_RES

%% MATPOWER Case Format : Version 2
mpc.version = '2';

%%-----  Power Flow Data  -----%%
%% system MVA base
mpc.baseMVA = 100;

%% bus data
%	bus_i	type	Pd	Qd	Gs	Bs	area	Vm	Va	baseKV	zone	Vmax	Vmin
mpc.bus = [
	1	1	0	0	0	0	1	0.996430259	-0.85321047	220	1	1.11	0.95;
	2	1	0	0	0	0	1	0.994588812	-0.362861983	220	1	1.11	0.95;
	3	1	0	0	0	0	1	0.968453575	-30.1985809	220	1	1.11	0.95;
	4	1	0	0	0	0	1	0.967229714	-9.02484484	220	1	1.11	0.95;
	5	1	0	0	0	0	1	0.98467574	-22.1657172	220	1	1.11	0.95;
	6	1	0	0	0	0	1	0.972385469	-15.5371868	400	1	1.05	0.95;
	7	1	0	0	0	0	1	0.969175999	-24.7899142	220	1	1.11	0.95;
	8	1	0	0	0	0	1	0.979101614	-11.6141595	400	1	1.05	0.95;
	9	1	0	0	0	0	1	0.965193096	-18.904138	400	1	1.05	0.95;
	10	2	12.23	9	0	0	1	1	-23.316259	220	1	1.11	0.95;
	11	1	0	0	0	0	1	0.974505823	-7.28327764	220	1	1.11	0.95;
	12	1	0	0	0	0	1	0.964945916	-27.3229082	220	1	1.11	0.95;
	13	1	0	0	0	0	1	0.972689201	-24.790388	220	1	1.11	0.95;
	14	1	0	0	0	0	1	0.969708373	-5.05318414	220	1	1.11	0.95;
	15	1	0	0	0	0	1	0.9463175	-17.9345979	400	1	1.05	0.95;
	16	2	54.88	100	0	0	1	1	-0.244043995	220	1	1.11	0.95;
	17	2	77	150	0	0	1	1	0.66830341	220	1	1.11	0.95;
	18	3	153	350	0	0	1	1	0	400	1	1.05	0.95;
	19	1	0	0	0	0	1	0.97448058	-26.156054	220	1	1.11	0.95;
	20	1	0	0	0	0	1	0.994884212	-2.15903257	400	1	1.05	0.95;
	21	1	0	0	0	0	1	0.970697354	-25.3389931	220	1	1.11	0.95;
	22	1	0	0	0	0	1	0.973153371	-13.3913199	220	1	1.11	0.95;
	23	1	0	0	0	0	1	0.990097898	-18.8757396	220	2	1.11	0.95;
	24	1	0	0	0	0	1	0.991190764	-13.5629923	220	2	1.11	0.95;
	25	1	0	0	0	0	1	0.993483689	-11.9212159	220	2	1.11	0.95;
	26	1	0	0	0	0	1	0.985349341	-22.2465142	220	2	1.11	0.95;
	27	1	0	0	0	0	1	0.982851747	-10.9712404	220	2	1.11	0.95;
	28	1	0	0	0	0	1	0.982828487	-10.96583	220	2	1.11	0.95;
	29	2	25.98	60	0	0	1	1	-17.1760663	220	2	1.11	0.95;
	30	2	25.98	60	0	0	1	1	-17.1766249	220	2	1.11	0.95;
	31	2	20.98	50	0	0	1	1	-12.2720284	400	2	1.05	0.95;
	32	1	0	0	0	0	1	0.999583156	-12.3127057	400	2	1.05	0.95;
	33	1	0	0	0	0	1	0.978516583	-11.9165108	220	2	1.11	0.95;
	34	1	0	0	0	0	1	1.00517458	-11.5917837	400	2	1.05	0.95;
	35	1	0	0	0	0	1	1.00517794	-11.6006314	400	2	1.05	0.95;
	36	1	0	0	0	0	1	0.966131498	-15.7968192	400	2	1.05	0.95;
	37	1	0	0	0	0	1	0.990741801	-20.0696833	220	2	1.11	0.95;
	38	1	0	0	0	0	1	0.990731557	-20.0685458	220	2	1.11	0.95;
	39	1	0	0	0	0	1	0.98912392	-10.7945172	400	2	1.05	0.95;
	40	1	0	0	0	0	1	0.989079941	-10.7831406	400	2	1.05	0.95;
	41	2	11.99	30	0	0	1	1	-9.53774254	220	2	1.11	0.95;
	42	2	11.99	30	0	0	1	1	-9.5515467	220	2	1.11	0.95;
	43	2	23.98	60	0	0	1	1	-8.02412666	400	2	1.05	0.95;
	44	2	23.98	60	0	0	1	1	-8.0383066	400	2	1.05	0.95;
	45	2	159.84	75	0	0	1	1	-18.4075957	220	2	1.11	0.95;
	46	1	0	0	0	0	1	0.999982402	-18.4057218	220	2	1.11	0.95;
	47	1	0	0	0	0	1	0.981323978	-11.8676715	220	2	1.11	0.95;
	48	1	0	0	0	0	1	0.988948762	-17.1069127	220	2	1.11	0.95;
	49	1	0	0	0	0	1	0.988984008	-17.1124452	220	2	1.11	0.95;
	50	1	0	0	0	0	1	0.996240775	-9.65316347	400	2	1.05	0.95;
	51	1	0	0	0	0	1	0.996277587	-9.67354652	400	2	1.05	0.95;
	52	1	0	0	0	0	1	0.985124838	-14.7316348	220	2	1.11	0.95;
	53	1	0	0	0	0	1	0.987524013	-14.6063177	220	2	1.11	0.95;
	54	1	0	0	0	0	1	0.993787818	-11.8418213	220	2	1.11	0.95;
	55	1	0	0	0	0	1	0.99097946	-18.9390182	220	2	1.11	0.95;
	56	1	0	0	0	0	1	0.998033732	-4.1946706	220	3	1.11	0.95;
	57	1	22.98	10.96	0	0	1	0.997271055	-7.93250034	220	3	1.11	0.95;
	58	1	21.98	5.79	0	0	1	0.997533135	-7.93258703	220	3	1.11	0.95;
	59	1	0	0	0	0	1	0.995751753	1.88122671	220	3	1.11	0.95;
	60	1	0	0	0	0	1	0.996246961	-3.69433433	220	3	1.11	0.95;
	61	1	0	0	0	0	1	0.998994549	3.84136424	220	3	1.11	0.95;
	62	1	0	0	0	0	1	0.99897135	3.84326908	220	3	1.11	0.95;
	63	2	37.37	52.69	0	0	1	1	2.3312522	220	3	1.11	0.95;
	64	2	35.37	55.32	0	0	1	1	2.15040299	220	3	1.11	0.95;
	65	1	13.39	2.02	0	0	1	0.996305482	-0.140915638	220	3	1.11	0.95;
	66	1	0	0	0	0	1	1.02371483	-9.82337926	220	3	1.11	0.95;
	67	2	60.4	92.1	0	0	1	1	-7.68263713	400	3	1.05	0.95;
	68	1	0	0	0	0	1	1.00740804	-7.73382675	220	3	1.11	0.95;
	69	1	0	0	0	0	1	0.997813645	0.194017391	220	3	1.11	0.95;
	70	1	0	0	0	0	1	1.00342391	-3.23621031	220	3	1.11	0.95;
	71	1	0	0	0	0	1	0.995497332	-0.912500166	220	3	1.11	0.95;
	72	1	0	0	0	0	1	0.995497332	-0.912500166	220	3	1.11	0.95;
	73	1	0	0	0	0	1	1.00904264	-2.37279183	220	3	1.11	0.95;
	74	1	0	0	0	0	1	1.00594978	-3.44813401	220	3	1.11	0.95;
	75	1	0	0	0	0	1	0.984855289	-2.54292907	400	3	1.05	0.95;
	76	1	0	0	0	0	1	0.98489639	-2.54776899	400	3	1.05	0.95;
	77	1	0	0	0	0	1	0.995098659	-1.49955738	220	3	1.11	0.95;
	78	1	0	0	0	0	1	0.994325146	-5.21474534	220	3	1.11	0.95;
	79	1	0	0	0	0	1	0.996377009	-0.0995083993	220	3	1.11	0.95;
	80	1	0	0	0	0	1	0.997986504	-7.87243518	220	3	1.11	0.95;
	81	1	0	0	0	0	1	0.997990016	-7.87194792	220	3	1.11	0.95;
	82	1	0	0	0	0	1	0.995037353	2.4898932	220	3	1.11	0.95;
	83	2	15.99	22.97	0	0	1	1	0.177150345	220	3	1.11	0.95;
	84	2	15.79	22.27	0	0	1	1	0.176072214	220	3	1.11	0.95;
	85	2	9.99	17.01	0	0	1	1	-1.44915946	220	3	1.11	0.95;
	86	2	9.99	16.66	0	0	1	1	-1.44596347	220	3	1.11	0.95;
	87	1	11.09	16.22	0	0	1	0.993882662	-2.25782068	220	3	1.11	0.95;
	88	1	0	0	0	0	1	0.993882337	-2.25910417	220	3	1.11	0.95;
	89	1	0	0	0	0	1	0.992941406	-0.22223751	220	3	1.11	0.95;
	90	1	0	0	0	0	1	0.99856349	-1.24547298	220	3	1.11	0.95;
	91	1	0	0	0	0	1	0.995359687	0.358235212	220	3	1.11	0.95;
	92	1	0	0	0	0	1	0.985890046	-6.0867691	400	3	1.05	0.95;
	93	2	9.99	16.39	0	0	1	1	0.967995635	220	3	1.11	0.95;
	94	1	0	0	0	0	1	0.999973211	0.966582481	220	3	1.11	0.95;
	95	2	6.89	8.15	0	0	1	1	0.748206355	220	3	1.11	0.95;
	96	1	0	0	0	0	1	0.999999353	0.742722356	220	3	1.11	0.95;
	97	2	8.69	5.26	0	0	1	1	-4.85394292	220	3	1.11	0.95;
	98	1	0	0	0	0	1	0.987196351	-8.56052072	400	3	1.05	0.95;
	99	1	0	0	0	0	1	0.987311936	-8.54948229	400	3	1.05	0.95;
	100	1	0	0	0	0	1	0.986746512	-5.64813174	400	3	1.05	0.95;
	101	1	0	0	0	0	1	0.986741671	-5.63755509	400	3	1.05	0.95;
	102	1	0	0	0	0	1	0.99451097	-0.113936732	220	3	1.11	0.95;
	103	2	18.09	23.76	0	0	1	1	-1.44933564	220	3	1.11	0.95;
	104	2	33.68	46.11	0	0	1	1	-1.44141094	220	3	1.11	0.95;
	105	2	33.78	62.95	0	0	1	1	-5.53696019	400	3	1.05	0.95;
	106	1	0	0	0	0	1	0.999717948	-5.54905028	400	3	1.05	0.95;
	107	1	0	0	0	0	1	1.00105023	-3.60589833	220	3	1.11	0.95;
	108	1	0	0	0	0	1	1.00329059	-3.40469572	220	3	1.11	0.95;
	109	2	1	22.36	0	0	1	1	4.73404015	220	3	1.11	0.95;
	110	2	1	22.18	0	0	1	1	4.73578793	220	3	1.11	0.95;
	111	2	26.49	18	0	0	1	1	-15.4848386	220	4	1.11	0.95;
	112	1	0	0	0	0	1	0.999876821	-15.478351	220	4	1.11	0.95;
	113	1	0	0	0	0	1	0.958460878	-30.0054973	220	4	1.11	0.95;
	114	1	0	0	0	0	1	0.970723934	-29.10641	220	4	1.11	0.95;
	115	1	0	0	0	0	1	0.935050043	-24.5195535	400	4	1.05	0.95;
	116	1	0	0	0	0	1	0.934932408	-24.5038977	400	4	1.05	0.95;
	117	1	0	0	0	0	1	0.976343374	-34.4282875	220	4	1.11	0.95;
	118	1	0	0	0	0	1	0.966331984	-45.1260707	220	4	1.11	0.95;
	119	1	0	0	0	0	1	0.966331984	-45.1260707	220	4	1.11	0.95;
	120	1	0	0	0	0	1	0.951984988	-42.9938197	220	4	1.11	0.95;
	121	1	0	0	0	0	1	0.96751484	-30.439364	220	4	1.11	0.95;
	122	1	0	0	0	0	1	0.96751484	-30.439364	220	4	1.11	0.95;
	123	2	5.5	7	0	0	1	1	-21.322936	220	4	1.11	0.95;
	124	2	8.79	17	0	0	1	1	-21.3160388	220	4	1.11	0.95;
	125	2	35.7	18.3	0	0	1	1	-41.1651876	220	4	1.11	0.95;
	126	1	25.28	15.9	0	0	1	1.00003055	-41.1502542	220	4	1.11	0.95;
	127	2	25.71	15.3	0	0	1	1	-32.4476836	400	4	1.05	0.95;
	128	1	0	0	0	0	1	0.999863553	-32.456194	400	4	1.05	0.95;
	129	1	0	0	0	0	1	0.96131663	-37.6594879	220	4	1.11	0.95;
	130	1	0	0	0	0	1	0.937920003	-38.8505301	220	4	1.11	0.95;
	131	2	68.67	70	0	0	1	1	-26.1095678	220	4	1.11	0.95;
	132	2	33	45	0	0	1	1	-26.1277361	220	4	1.11	0.95;
	133	1	0	0	0	0	1	0.98606347	-25.5689217	400	4	1.05	0.95;
	134	1	0	0	0	0	1	0.986141859	-25.5702085	400	4	1.05	0.95;
	135	1	0	0	0	0	1	0.965435632	-45.0029123	220	4	1.11	0.95;
	136	1	0	0	0	0	1	0.965435632	-45.0029123	220	4	1.11	0.95;
	137	1	0	0	0	0	1	0.940950756	-19.6553453	400	4	1.05	0.95;
	138	1	0	0	0	0	1	0.940950756	-19.6553453	400	4	1.05	0.95;
	139	2	33.2	22.6	0	0	1	1	-21.6378496	220	4	1.11	0.95;
	140	2	29.23	19.6	0	0	1	1	-21.6475997	220	4	1.11	0.95;
	141	1	0	0	0	0	1	0.976767142	-41.1370308	220	4	1.11	0.95;
	142	1	0	0	0	0	1	0.963517727	-45.3757106	220	4	1.11	0.95;
	143	1	0	0	0	0	1	0.983556946	-36.3347715	220	4	1.11	0.95;
	144	1	0	0	0	0	1	0.983456239	-36.3337565	220	4	1.11	0.95;
	145	1	0	0	0	0	1	0.911445826	-36.041249	400	4	1.05	0.95;
	146	1	0	0	0	0	1	0.911445826	-36.041249	400	4	1.05	0.95;
	147	1	0	0	0	0	1	0.952920262	-34.9337637	220	4	1.11	0.95;
	148	1	0	0	0	0	1	0.952982633	-34.9271824	220	4	1.11	0.95;
	149	1	0	0	0	0	1	0.979982913	-37.1525998	220	4	1.11	0.95;
	150	1	0	0	0	0	1	0.96281846	-29.0854561	220	4	1.11	0.95;
	151	1	0	0	0	0	1	0.962841222	-29.0942996	220	4	1.11	0.95;
	152	1	0	0	0	0	1	0.96159665	-25.1863051	220	4	1.11	0.95;
	153	1	0	0	0	0	1	0.96159665	-25.1863051	220	4	1.11	0.95;
	154	1	0	0	0	0	1	0.937160614	-37.1498698	220	4	1.11	0.95;
	155	1	0	0	0	0	1	0.969904701	-30.7580754	220	5	1.11	0.95;
	156	1	0	0	0	0	1	1.0436266	-35.1909853	220	5	1.11	0.95;
	157	1	0	0	0	0	1	0.976180714	-33.1274248	400	5	1.05	0.95;
	158	1	0	0	0	0	1	0.976164841	-33.1200504	400	5	1.05	0.95;
	159	1	0	0	0	0	1	0.982802074	-29.9796557	400	5	1.05	0.95;
	160	1	0	0	0	0	1	0.982885701	-29.9871173	400	5	1.05	0.95;
	161	1	0	0	0	0	1	0.976601469	-35.83162	220	5	1.11	0.95;
	162	1	0	0	0	0	1	0.976613863	-35.8332226	220	5	1.11	0.95;
	163	1	0	0	0	0	1	1.0096531	-29.8873628	220	5	1.11	0.95;
	164	1	0	0	0	0	1	1.00962353	-29.8933563	220	5	1.11	0.95;
	165	1	0	0	0	0	1	0.937534672	-27.5843379	400	5	1.05	0.95;
	166	1	0	0	0	0	1	0.979906991	-29.8434218	220	5	1.11	0.95;
	167	1	0	0	0	0	1	0.979942498	-29.8391609	220	5	1.11	0.95;
	168	1	0	0	0	0	1	0.977403619	-31.761886	400	5	1.05	0.95;
	169	1	0	0	0	0	1	0.977361735	-31.7691446	400	5	1.05	0.95;
	170	1	0	0	0	0	1	0.971170254	-32.2666944	220	5	1.11	0.95;
	171	1	0	0	0	0	1	0.971186831	-32.2630431	220	5	1.11	0.95;
	172	1	0	0	0	0	1	0.983899369	-31.7061848	220	5	1.11	0.95;
	173	1	0	0	0	0	1	0.983854884	-31.7063059	220	5	1.11	0.95;
	174	1	0	0	0	0	1	0.970321684	-29.9517231	220	5	1.11	0.95;
	175	1	0	0	0	0	1	0.970332833	-29.9587185	220	5	1.11	0.95;
	176	2	0	40	0	0	1	1	-28.6687575	400	5	1.05	0.95;
	177	2	0	40	0	0	1	1	-28.6660483	400	5	1.05	0.95;
	178	1	0	0	0	0	1	0.998146403	-37.437662	220	5	1.11	0.95;
	179	1	0	0	0	0	1	0.998190838	-37.4320427	220	5	1.11	0.95;
	180	2	339.85	49.6	0	0	2	1	-8.45051302	400	6	1.05	0.95;
	181	2	0	0	0	0	3	1	-10.4052591	220	6	1.11	0.95;
	182	2	0	0	0	0	5	1	-25.3390887	400	6	1.05	0.95;
	183	1	150	0	0	0	3	1.01106439	-12.5981087	400	6	1.05	0.95;
	184	2	317.34	50.3	0	0	2	1	-4.7086396	220	6	1.11	0.95;
	185	2	362.43	36.7	0	0	2	1	-9.25453939	400	6	1.05	0.95;
	186	2	33.33	1	0	0	5	1	-41.3111973	220	6	1.11	0.95;
	187	1	7.12	1.5	0	0	1	0.968792199	-29.607122	110	1	1.12	0.95;
	188	1	7.63	1	0	0	1	0.934766952	-37.6579671	110	1	1.12	0.95;
	189	1	9.77	8.7	0	0	1	0.923479366	-34.2567591	110	1	1.12	0.95;
	190	1	6.12	1.5	0	0	1	1.00093519	-5.87887247	110	1	1.12	0.95;
	191	1	6.12	1.6	0	0	1	0.998410368	-7.39557841	110	1	1.12	0.95;
	192	2	30.56	12	0	0	1	1	-24.7845441	110	1	1.12	0.95;
	193	1	15.28	3	0	0	1	1.00286974	-24.7061279	110	1	1.12	0.95;
	194	1	0	0	0	0	1	1.00063311	-25.0356511	110	1	1.12	0.95;
	195	1	8.14	2	0	0	1	0.997066358	-31.2457556	110	1	1.12	0.95;
	196	2	6.92	1.5	0	0	1	1	-39.6000827	110	1	1.12	0.95;
	197	1	6.92	1.5	0	0	1	0.976515183	-17.4950106	110	1	1.12	0.95;
	198	2	12.32	1.7	0	0	1	1	-31.4155675	110	1	1.12	0.95;
	199	1	1.43	0.5	0	0	1	1.00553587	-9.00137281	110	1	1.12	0.95;
	200	1	1.08	0.5	0	0	1	1.00046815	-29.9940681	110	1	1.12	0.95;
	201	1	5.61	0.5	0	0	1	0.982007548	-32.0436592	110	1	1.12	0.95;
	202	1	18.34	2	0	0	1	0.988742238	-26.9328577	110	1	1.12	0.95;
	203	1	11.1	1.6	0	0	1	0.996313004	-31.5869807	110	1	1.12	0.95;
	204	1	0	0	0	0	1	0.999628221	-15.5364552	110	1	1.12	0.95;
	205	2	6.92	2	0	0	1	1	-13.038557	110	1	1.12	0.95;
	206	1	11.2	1	0	0	1	0.994979906	-32.4919192	110	1	1.12	0.95;
	207	1	7.32	1.6	0	0	1	0.999276892	-7.12866667	110	1	1.12	0.95;
	208	1	-7.32	-4.5	0	0	1	0.996212939	-16.7732204	110	1	1.12	0.95;
	209	1	9.36	0.8	0	0	1	0.996068437	-32.9934638	110	1	1.12	0.95;
	210	1	15.18	4.4	0	0	1	1.00186799	-11.7749885	110	1	1.12	0.95;
	211	1	8.75	0.2	0	0	1	0.993930599	-33.0816729	110	1	1.12	0.95;
	212	1	10.18	1.5	0	0	1	0.985358058	-29.2645088	110	1	1.12	0.95;
	213	2	-2.04	-1	0	0	1	1	-32.5008484	110	1	1.12	0.95;
	214	1	12.02	0.5	0	0	1	0.983019139	-35.4043732	110	1	1.12	0.95;
	215	1	6.92	2	0	0	1	0.997518579	-12.4994029	110	1	1.12	0.95;
	216	1	8.85	0.5	0	0	1	1.04377557	-7.09916749	110	1	1.12	0.95;
	217	1	1.94	0.4	0	0	1	0.999356355	-23.849854	110	1	1.12	0.95;
	218	1	12.22	1.5	0	0	1	0.964710036	-34.0522007	110	1	1.12	0.95;
	219	1	2.55	0.5	0	0	1	0.981190296	-32.4442672	110	1	1.12	0.95;
	220	1	2.55	0.5	0	0	1	0.966746671	-34.0635955	110	1	1.12	0.95;
	221	1	4.08	0.5	0	0	1	0.906733842	-40.8768799	110	1	1.12	0.95;
	222	1	6.53	0.4	0	0	1	1.00297509	-28.7391696	110	1	1.12	0.95;
	223	1	18.65	4	0	0	1	0.979111459	-23.533836	110	1	1.12	0.95;
	224	1	19.86	2.5	0	0	1	0.994212075	-32.4253605	110	1	1.12	0.95;
	225	1	17.3	2	0	0	1	0.977265807	-38.3136762	110	1	1.12	0.95;
	226	1	24.44	1.5	0	0	1	0.975921274	-31.8322364	110	1	1.12	0.95;
	227	1	5.61	1	0	0	1	0.97703364	-32.0057167	110	1	1.12	0.95;
	228	1	11.4	1.1	0	0	1	0.999605141	-8.00214294	110	1	1.12	0.95;
	229	1	11	2.7	0	0	1	0.985448772	-16.991875	110	1	1.12	0.95;
	230	1	7.63	1	0	0	1	0.90205495	-41.7063732	110	1	1.12	0.95;
	231	1	7.94	1.1	0	0	1	0.996973631	-27.996295	110	1	1.12	0.95;
	232	1	7.94	1.1	0	0	1	0.975485126	-28.5292468	110	1	1.12	0.95;
	233	1	1.84	0.8	0	0	1	0.990080199	-34.1271873	110	1	1.12	0.95;
	234	1	33.46	28	0	0	1	0.997387811	-6.82103311	110	1	1.12	0.95;
	235	1	33.76	28	0	0	1	0.989462864	-4.78353726	110	1	1.12	0.95;
	236	1	1.02	0.5	0	0	1	0.998344857	-32.2543815	110	1	1.12	0.95;
	237	1	13.95	1.7	0	0	1	0.996661892	-33.5846105	110	1	1.12	0.95;
	238	1	9.98	1	0	0	1	1.00540107	-27.7772179	110	1	1.12	0.95;
	239	1	15.28	1.5	0	0	1	0.985992957	-27.1024764	110	1	1.12	0.95;
	240	1	11.2	1.5	0	0	1	0.910996975	-40.0664559	110	1	1.12	0.95;
	241	1	10.18	3	0	0	1	0.991319458	-31.2460641	110	1	1.12	0.95;
	242	1	1.22	0.1	0	0	1	0.990896597	-31.7219774	110	1	1.12	0.95;
	243	1	0	0	0	0	1	1.0076296	-26.2117678	110	1	1.12	0.95;
	244	1	1.02	0	0	0	1	1.00932606	-27.5092206	110	1	1.12	0.95;
	245	1	12.12	5.4	0	0	1	1.00043232	-14.037223	110	1	1.12	0.95;
	246	1	-8.14	-3.6	0	0	1	1.00194957	-11.7090997	110	1	1.12	0.95;
	247	1	11.2	1.5	0	0	1	0.980709628	-17.1367203	110	1	1.12	0.95;
	248	1	3.06	0.5	0	0	1	0.999474883	-26.2250476	110	1	1.12	0.95;
	249	1	9.16	0	0	0	1	0.999587397	-27.9708851	110	1	1.12	0.95;
	250	1	27.71	3	0	0	1	0.998143728	-28.2049793	110	1	1.12	0.95;
	251	1	21.38	4	0	0	1	0.987999261	-5.06250458	110	1	1.12	0.95;
	252	1	21.38	4	0	0	1	0.991628965	-7.8088666	110	1	1.12	0.95;
	253	1	14.87	4.3	0	0	1	0.999573282	-13.8817878	110	1	1.12	0.95;
	254	1	19.86	3.5	0	0	1	0.986358739	-16.0589622	110	1	1.12	0.95;
	255	1	10.18	1	0	0	1	0.984052261	-31.376877	110	1	1.12	0.95;
	256	1	5.61	0	0	0	1	0.989974108	-27.660295	110	1	1.12	0.95;
	257	1	7.12	0.2	0	0	1	0.994002539	-31.6595283	110	1	1.12	0.95;
	258	1	4.08	0.3	0	0	1	0.962456097	-20.2794337	110	1	1.12	0.95;
	259	1	20.87	4.2	0	0	1	0.995064983	-28.5447975	110	1	1.12	0.95;
	260	1	10.69	1.5	0	0	1	0.999033273	-27.4104905	110	1	1.12	0.95;
	261	1	7.94	2	0	0	1	1.00547304	-11.6985778	110	1	1.12	0.95;
	262	1	0.2	0	0	0	1	1.00243859	-29.0894132	110	1	1.12	0.95;
	263	1	5.3	1	0	0	1	0.975621339	-30.1261043	110	1	1.12	0.95;
	264	2	12.22	1	0	0	1	1	-34.6073908	110	1	1.12	0.95;
	265	1	12.22	1	0	0	1	0.964335459	-20.0952961	110	1	1.12	0.95;
	266	1	8.34	1.6	0	0	1	1.00569816	-13.2625918	110	1	1.12	0.95;
	267	1	10.38	3	0	0	1	0.998211968	-15.4201496	110	1	1.12	0.95;
	268	1	14.87	3.7	0	0	1	0.998685734	-13.1794513	110	1	1.12	0.95;
	269	2	15.28	4	0	0	1	1	-26.1491543	110	1	1.12	0.95;
	270	1	3.67	0.5	0	0	1	1.00107533	-11.8514303	110	1	1.12	0.95;
	271	1	3.67	0.5	0	0	1	0.995832715	-10.3113922	110	1	1.12	0.95;
	272	1	9.26	3	0	0	1	1.00558804	-11.6824293	110	1	1.12	0.95;
	273	1	12.93	3.7	0	0	1	0.997380302	-12.4809169	110	1	1.12	0.95;
	274	1	25.67	7.4	0	0	1	0.998101887	-13.9623187	110	1	1.12	0.95;
	275	1	23.22	6.7	0	0	1	0.998243637	-15.5161276	110	1	1.12	0.95;
	276	1	14.26	5.1	0	0	1	0.995575734	-14.5484881	110	1	1.12	0.95;
	277	2	52.14	20.4	0	0	1	1	-14.5545989	110	1	1.12	0.95;
	278	2	24.95	9.7	0	0	1	1	-15.423311	110	1	1.12	0.95;
	279	2	24.95	9.7	0	0	1	1	-12.5774972	110	1	1.12	0.95;
	280	1	0	0	0	0	1	0.998221912	-15.4551795	110	1	1.12	0.95;
	281	2	30.66	11.9	0	0	1	1	-13.8541319	110	1	1.12	0.95;
	282	2	13.14	5.1	0	0	1	1	-11.6772468	110	1	1.12	0.95;
	283	1	17.02	0.2	0	0	1	0.976366308	-18.3251022	110	1	1.12	0.95;
	284	1	2.55	0.5	0	0	1	0.990995345	-26.6123456	110	1	1.12	0.95;
	285	1	8.14	1.5	0	0	1	0.994329667	-32.4051653	110	1	1.12	0.95;
	286	1	29.75	4.1	0	0	1	0.994274513	-32.7188344	110	1	1.12	0.95;
	287	1	12.22	4	0	0	1	0.98294822	-31.0980619	110	1	1.12	0.95;
	288	1	13.14	3.8	0	0	1	0.998684876	-13.8768607	110	1	1.12	0.95;
	289	2	21.28	6.1	0	0	1	1	-14.2874025	110	1	1.12	0.95;
	290	1	17.32	3	0	0	1	0.996950394	-28.3045889	110	1	1.12	0.95;
	291	1	16.81	5.4	0	0	1	0.999913917	-11.7399923	110	1	1.12	0.95;
	292	1	17.32	5	0	0	1	0.998328693	-14.7006181	110	1	1.12	0.95;
	293	1	7.43	2.1	0	0	1	0.99869118	-14.8459532	110	1	1.12	0.95;
	294	2	15.28	3	0	0	1	1	-28.0194441	110	1	1.12	0.95;
	295	1	21.28	3.4	0	0	1	0.989641092	-33.4948928	110	1	1.12	0.95;
	296	1	17.63	5.1	0	0	1	0.998666616	-14.8557993	110	1	1.12	0.95;
	297	1	8.55	2	0	0	1	1.00016044	-13.6341793	110	1	1.12	0.95;
	298	1	7.02	1.6	0	0	1	0.999865969	-13.8125476	110	1	1.12	0.95;
	299	1	48.06	13.8	0	0	1	0.995669574	-14.5419593	110	1	1.12	0.95;
	300	1	21.38	9	0	0	1	0.956148545	-27.2397734	110	1	1.12	0.95;
	301	1	6.22	1.3	0	0	1	0.981912743	-17.2728964	110	1	1.12	0.95;
	302	1	6.12	1.3	0	0	1	0.98867965	-33.5704275	110	1	1.12	0.95;
	303	1	6.32	0.5	0	0	1	0.975529671	-36.6457908	110	1	1.12	0.95;
	304	1	17.83	5.1	0	0	1	0.997604569	-12.334516	110	1	1.12	0.95;
	305	1	7.53	1.1	0	0	1	0.985113625	-29.6379235	110	1	1.12	0.95;
	306	1	21.38	4	0	0	1	1.00549902	-26.234046	110	1	1.12	0.95;
	307	1	18.34	4	0	0	1	0.985815753	-31.6826448	110	1	1.12	0.95;
	308	1	5.1	0	0	0	1	0.99348526	-26.1523759	110	1	1.12	0.95;
	309	1	0	0	0	0	1	1.01848995	-26.0500568	110	1	1.12	0.95;
	310	1	0	0	0	0	1	1.0017438	-26.4613046	110	1	1.12	0.95;
	311	1	32.4	5.7	0	0	1	0.979990804	-27.4973287	110	1	1.12	0.95;
	312	1	0	0	0	0	1	0.980016855	-27.4971565	110	1	1.12	0.95;
	313	1	7.12	0.5	0	0	1	0.99202328	-40.2237256	110	1	1.12	0.95;
	314	2	7.73	1.5	0	0	1	1	-28.5710789	110	1	1.12	0.95;
	315	1	9.47	0	0	0	1	0.985099958	-35.456729	110	1	1.12	0.95;
	316	1	16.2	4	0	0	1	1.00189484	-13.4960348	110	1	1.12	0.95;
	317	1	7.12	2	0	0	1	0.999480525	-30.6120716	110	1	1.12	0.95;
	318	1	6.12	2	0	0	1	0.979207095	-30.8834172	110	1	1.12	0.95;
	319	1	0.81	0.3	0	0	1	0.993402969	-7.50566279	110	1	1.12	0.95;
	320	1	7.12	1	0	0	1	0.982196247	-28.8166268	110	1	1.12	0.95;
	321	1	0	0	0	0	1	0.998290366	-28.1738376	110	1	1.12	0.95;
	322	1	0	0	0	0	1	0.995421731	-30.6561352	110	1	1.12	0.95;
	323	1	9.98	1.8	0	0	1	0.975900458	-29.0682367	110	1	1.12	0.95;
	324	1	11.2	1.6	0	0	1	0.992256059	-32.1369953	110	1	1.12	0.95;
	325	1	13.65	0.3	0	0	1	0.998479513	-31.4790035	110	1	1.12	0.95;
	326	1	6.62	1.2	0	0	1	0.994574154	-16.9428079	110	1	1.12	0.95;
	327	1	4.08	0.1	0	0	1	0.998555312	-24.0615345	110	1	1.12	0.95;
	328	2	45.83	23	0	0	1	1	-27.4447858	110	1	1.12	0.95;
	329	2	45.83	23	0	0	1	1	-31.4757073	110	1	1.12	0.95;
	330	2	48.36	22	0	0	1	1	-25.8045553	110	1	1.12	0.95;
	331	2	48.36	22	0	0	1	1	-29.1671348	110	1	1.12	0.95;
	332	1	0	0	0	0	1	1.01709082	-23.8413538	110	1	1.12	0.95;
	333	1	9.47	0.4	0	0	1	0.996858932	-32.9062022	110	1	1.12	0.95;
	334	2	16.81	0.7	0	0	1	1	-32.7159858	110	1	1.12	0.95;
	335	1	4.08	1	0	0	1	0.978469608	-34.1211699	110	1	1.12	0.95;
	336	1	0	0	0	0	1	0.991721365	-28.7738304	110	1	1.12	0.95;
	337	1	17.83	5.5	0	0	1	0.991345163	-32.9405555	110	1	1.12	0.95;
	338	1	2.55	1.2	0	0	1	0.984806321	-16.3371967	110	1	1.12	0.95;
	339	1	3.98	1.7	0	0	1	0.996271559	-12.4920742	110	1	1.12	0.95;
	340	1	11.2	1.5	0	0	1	0.936865561	-36.9126942	110	1	1.12	0.95;
	341	1	11	0.1	0	0	1	0.986903664	-35.1493975	110	1	1.12	0.95;
	342	1	16.3	1.6	0	0	1	0.995567182	-16.7910264	110	1	1.12	0.95;
	343	1	1.02	0.5	0	0	1	0.995508427	-32.7456664	110	1	1.12	0.95;
	344	1	13.24	5	0	0	1	0.998776286	-24.1438902	110	1	1.12	0.95;
	345	1	17.73	4	0	0	1	0.986487136	-29.2580523	110	1	1.12	0.95;
	346	2	18.34	13	0	0	1	1	-23.6479678	110	1	1.12	0.95;
	347	2	8.14	4.5	0	0	1	1	-27.1578094	110	1	1.12	0.95;
	348	1	2.04	0.5	0	0	1	0.979433301	-29.9659804	110	1	1.12	0.95;
	349	1	20.37	4.5	0	0	1	1.00223576	-27.7060659	110	1	1.12	0.95;
	350	1	19.67	4.8	0	0	1	0.981781098	-17.542623	110	1	1.12	0.95;
	351	1	18.04	3.6	0	0	1	0.994644241	-30.9445226	110	1	1.12	0.95;
	352	1	14.67	5.2	0	0	1	1.00315559	-13.3821351	110	1	1.12	0.95;
	353	1	10.18	3.3	0	0	1	1.00682843	-11.5710264	110	1	1.12	0.95;
	354	1	2.04	0.6	0	0	1	1.00266844	-6.4189843	110	1	1.12	0.95;
	355	1	0	0	0	0	1	0.99433708	-4.42813948	110	1	1.12	0.95;
	356	1	2.96	0.6	0	0	1	1.00367081	-29.6998112	110	1	1.12	0.95;
	357	1	2.04	0.1	0	0	1	0.988090478	-26.9328044	110	1	1.12	0.95;
	358	1	6.92	1.6	0	0	1	0.993461781	-15.6864497	110	1	1.12	0.95;
	359	2	3.57	1.2	0	0	1	1	-31.1457671	110	1	1.12	0.95;
	360	1	3.57	1.1	0	0	1	1.0063023	-29.1745448	110	1	1.12	0.95;
	361	1	0	0	0	0	1	1.00612669	-27.5460984	110	1	1.12	0.95;
	362	1	0	0	0	0	1	0.998271365	-32.0604648	110	1	1.12	0.95;
	363	1	6.12	1	0	0	1	0.992367824	-31.2024488	110	1	1.12	0.95;
	364	1	-2.55	-0.8	0	0	1	0.995102466	-16.7574205	110	1	1.12	0.95;
	365	2	33.61	6.7	0	0	1	1	-27.7443428	110	1	1.12	0.95;
	366	1	34.62	6.7	0	0	1	0.978673255	-28.2538134	110	1	1.12	0.95;
	367	1	12.02	1.6	0	0	1	1.01941605	-8.78047736	110	1	1.12	0.95;
	368	1	10.18	1.5	0	0	1	1.01675903	-7.40529215	110	1	1.12	0.95;
	369	1	11.2	1.5	0	0	1	0.980654915	-33.1682242	110	1	1.12	0.95;
	370	1	14.57	1.6	0	0	1	1.0170279	-8.64491067	110	1	1.12	0.95;
	371	1	16.81	0.1	0	0	1	0.998734113	-31.4027983	110	1	1.12	0.95;
	372	1	12.83	1	0	0	1	0.976995524	-24.5399202	110	1	1.12	0.95;
	373	1	2.24	0.2	0	0	1	0.998233179	-32.0597663	110	1	1.12	0.95;
	374	1	0	0	0	0	1	1.01949959	-26.0488391	110	1	1.12	0.95;
	375	1	0	0	0	0	1	0.99942084	-31.4039432	110	1	1.12	0.95;
	376	1	25.16	5.4	0	0	1	1.01103673	-7.25816897	110	1	1.12	0.95;
	377	1	9.16	2	0	0	1	0.992441396	-32.8855674	110	1	1.12	0.95;
	378	1	9.57	0.1	0	0	1	0.999356775	-31.2758221	110	1	1.12	0.95;
	379	1	24.95	1.4	0	0	1	0.990516425	-32.5817061	110	1	1.12	0.95;
	380	1	7.63	1.7	0	0	1	0.994157693	-15.6424553	110	1	1.12	0.95;
	381	1	10.38	0.5	0	0	1	0.998352215	-24.6694189	110	1	1.12	0.95;
	382	2	8.14	3	0	0	1	1	-31.2257218	110	1	1.12	0.95;
	383	2	22.4	4	0	0	1	1	-31.0837524	110	1	1.12	0.95;
	384	1	14.26	3.5	0	0	1	0.996703866	-32.3871905	110	1	1.12	0.95;
	385	2	21.89	6.5	0	0	1	1	-32.1210045	110	1	1.12	0.95;
	386	1	12.73	2.5	0	0	1	0.991701679	-31.7428859	110	1	1.12	0.95;
	387	1	14.87	1.2	0	0	1	0.991173509	-30.5711298	110	1	1.12	0.95;
	388	1	17.83	1.3	0	0	1	0.969055588	-31.7033334	110	1	1.12	0.95;
	389	1	11.2	2.5	0	0	1	0.997444967	-31.7064642	110	1	1.12	0.95;
	390	2	12.02	3.5	0	0	1	1	-8.46801539	110	1	1.12	0.95;
	391	1	5.2	1.5	0	0	1	1.00144197	-13.5351103	110	1	1.12	0.95;
	392	1	11.4	2.6	0	0	1	0.999714819	-9.53670285	110	1	1.12	0.95;
	393	1	8.75	0.4	0	0	1	0.998698356	-31.6597625	110	1	1.12	0.95;
	394	1	11.71	3.3	0	0	1	0.965559355	-18.4274322	110	1	1.12	0.95;
	395	2	23.42	4.5	0	0	1	1	-30.0041835	110	1	1.12	0.95;
	396	1	9.06	2.6	0	0	1	0.998903812	-15.2290686	110	1	1.12	0.95;
	397	1	4.18	1	0	0	1	0.975862724	-29.2943678	110	1	1.12	0.95;
	398	1	9.16	2	0	0	1	0.950367164	-33.2653132	110	1	1.12	0.95;
	399	1	9.26	1.1	0	0	1	0.995541002	-9.06988872	110	1	1.12	0.95;
	400	1	9.16	1	0	0	1	0.999674184	-9.63558589	110	1	1.12	0.95;
	401	1	12.22	-0.5	0	0	1	0.911440925	-40.101521	110	1	1.12	0.95;
	402	1	4.28	0.9	0	0	1	0.993997106	-4.48663076	110	1	1.12	0.95;
	403	1	4.08	0.9	0	0	1	0.996643255	-6.94861583	110	1	1.12	0.95;
	404	2	12.02	3.1	0	0	1	1	-9.59587628	110	1	1.12	0.95;
	405	1	5.41	0.7	0	0	1	0.998043468	-10.0236446	110	1	1.12	0.95;
	406	1	9.06	2.4	0	0	1	1.00111747	-14.1057269	110	1	1.12	0.95;
	407	1	20.11	4.9	0	0	1	0.994224339	-16.0676074	110	1	1.12	0.95;
	408	1	8.85	1.1	0	0	1	1.02129951	-10.4006913	110	1	1.12	0.95;
	409	1	7.12	1.2	0	0	1	0.965704299	-19.6050374	110	1	1.12	0.95;
	410	1	9.47	2	0	0	1	0.996302316	-15.0859007	110	1	1.12	0.95;
	411	1	18.85	2.1	0	0	1	0.976370055	-30.584314	110	1	1.12	0.95;
	412	1	7.63	1.3	0	0	1	0.974050383	-30.367146	110	1	1.12	0.95;
	413	1	20.77	1.6	0	0	1	0.97250935	-30.0589374	110	1	1.12	0.95;
	414	1	5.1	0.5	0	0	1	0.907495431	-40.4237866	110	1	1.12	0.95;
	415	1	5.92	1.2	0	0	1	0.995879667	-31.9194549	110	1	1.12	0.95;
	416	1	20.87	5	0	0	1	0.99782583	-28.1660522	110	1	1.12	0.95;
	417	1	2.65	0.3	0	0	1	1.04026948	-7.95006523	110	1	1.12	0.95;
	418	1	13.75	1.3	0	0	1	0.986032552	-33.0451318	110	1	1.12	0.95;
	419	1	14.77	1.4	0	0	1	0.989046753	-13.6137941	110	1	1.12	0.95;
	420	1	22.3	4.5	0	0	1	0.998979369	-27.0122536	110	1	1.12	0.95;
	421	1	14.26	0.8	0	0	1	0.997110508	-34.7157182	110	1	1.12	0.95;
	422	1	14.26	0.8	0	0	1	0.962686871	-20.3511005	110	1	1.12	0.95;
	423	1	18.34	2	0	0	1	0.965298762	-30.5263719	110	1	1.12	0.95;
	424	1	12.63	4	0	0	1	0.993476402	-19.6694258	110	1	1.12	0.95;
	425	1	33.92	4.2	0	0	1	0.99991951	-31.090029	110	1	1.12	0.95;
	426	2	16.81	4	0	0	1	1	-31.6382281	110	1	1.12	0.95;
	427	1	18.04	2.1	0	0	1	0.984112234	-16.7522132	110	1	1.12	0.95;
	428	1	17.83	0	0	0	1	1.00357912	-29.302829	110	1	1.12	0.95;
	429	1	12.32	3.5	0	0	1	1.00271555	-11.73597	110	1	1.12	0.95;
	430	1	6.53	2	0	0	1	0.967764104	-24.1248316	110	1	1.12	0.95;
	431	1	6.22	1.5	0	0	1	0.98835144	-16.6838158	110	1	1.12	0.95;
	432	1	3.37	0.2	0	0	1	0.998256623	-30.8533069	110	1	1.12	0.95;
	433	1	5.2	1	0	0	1	1.0104324	-8.27919519	110	1	1.12	0.95;
	434	1	20.37	2.5	0	0	1	0.914766923	-39.8926866	110	1	1.12	0.95;
	435	1	0.61	0.1	0	0	1	1.00173966	-26.4842438	110	1	1.12	0.95;
	436	1	0.51	0.1	0	0	1	0.995033784	-28.5540771	110	1	1.12	0.95;
	437	1	10.18	1	0	0	1	0.960658904	-34.7472291	110	1	1.12	0.95;
	438	1	6.22	0.2	0	0	1	1.00127218	-29.7633905	110	1	1.12	0.95;
	439	1	2.65	0.5	0	0	1	0.993924946	-16.7058513	110	1	1.12	0.95;
	440	1	15.79	3.5	0	0	1	0.989813883	-29.6810775	110	1	1.12	0.95;
	441	1	16.61	4.8	0	0	1	0.999271817	-12.8857799	110	1	1.12	0.95;
	442	1	4.9	0	0	0	1	0.978945702	-36.1288677	110	1	1.12	0.95;
	443	1	13.75	2.1	0	0	1	0.935482138	-33.9651787	110	1	1.12	0.95;
	444	2	16.1	4.1	0	0	1	1	-9.85882217	110	1	1.12	0.95;
	445	1	14.77	1.9	0	0	1	1.00120214	-13.1885975	110	1	1.12	0.95;
	446	1	14.98	1.7	0	0	1	0.996808436	-10.1455383	110	1	1.12	0.95;
	447	1	4.08	1	0	0	1	1.04774822	-6.8967677	110	1	1.12	0.95;
	448	1	4.79	2.4	0	0	1	1.04496963	-5.55807264	110	1	1.12	0.95;
	449	1	0	0	0	0	1	1.00121336	-13.1888544	110	1	1.12	0.95;
	450	1	0	0	0	0	1	0.996811682	-10.1456288	110	1	1.12	0.95;
	451	2	9.16	4	0	0	1	1	-28.2174401	110	1	1.12	0.95;
	452	1	4.08	2	0	0	1	0.992944282	-30.5448619	110	1	1.12	0.95;
	453	1	9.16	0.5	0	0	1	0.999156812	-24.9165573	110	1	1.12	0.95;
	454	1	21.38	6	0	0	1	0.995559952	-28.3828539	110	1	1.12	0.95;
	455	1	30.56	7	0	0	1	0.996097341	-30.995137	110	1	1.12	0.95;
	456	1	27.5	9	0	0	1	0.990292193	-30.4157716	110	1	1.12	0.95;
	457	1	28.52	9	0	0	1	0.996048663	-30.4958135	110	1	1.12	0.95;
	458	1	7.12	3	0	0	1	0.998324591	-32.3630997	110	1	1.12	0.95;
	459	1	7.12	1	0	0	1	0.986497726	-32.9787527	110	1	1.12	0.95;
	460	1	10.79	1.2	0	0	1	0.991759372	-31.0921101	110	1	1.12	0.95;
	461	1	21.38	11	0	0	1	0.998379221	-31.2245815	110	1	1.12	0.95;
	462	1	39.72	10	0	0	1	0.984356407	-31.1996804	110	1	1.12	0.95;
	463	1	27.5	10	0	0	1	0.994048652	-30.3496946	110	1	1.12	0.95;
	464	1	21.38	8	0	0	1	0.998716731	-31.2076643	110	1	1.12	0.95;
	465	1	23.42	6	0	0	1	0.985979748	-30.940558	110	1	1.12	0.95;
	466	1	7.12	1	0	0	1	0.897476636	-42.4769397	110	1	1.12	0.95;
	467	1	61.09	20	0	0	1	0.97897783	-30.8621378	110	1	1.12	0.95;
	468	1	30.56	10	0	0	1	0.988318664	-31.4019293	110	1	1.12	0.95;
	469	1	7.63	1.4	0	0	1	1.04354687	-5.71912156	110	1	1.12	0.95;
	470	1	0	0	0	0	1	1.00344697	-8.93587104	110	1	1.12	0.95;
	471	1	20.17	6.5	0	0	1	1.0000325	-11.7627319	110	1	1.12	0.95;
	472	1	3.57	1.2	0	0	1	0.999906412	-14.0793156	110	1	1.12	0.95;
	473	1	4.08	2	0	0	1	0.998123474	-32.5770551	110	1	1.12	0.95;
	474	1	4.08	0.5	0	0	1	0.999057752	-27.3016462	110	1	1.12	0.95;
	475	1	22.4	6	0	0	1	0.992630383	-30.9133442	110	1	1.12	0.95;
	476	1	9.16	2	0	0	1	0.994696979	-29.9783196	110	1	1.12	0.95;
	477	1	9.16	2	0	0	1	0.989686335	-29.6346239	110	1	1.12	0.95;
	478	1	24.44	6	0	0	1	0.987438821	-31.4666427	110	1	1.12	0.95;
	479	1	15.28	4	0	0	1	0.991946705	-30.9776118	110	1	1.12	0.95;
	480	1	10.18	3	0	0	1	0.996226258	-28.3452469	110	1	1.12	0.95;
	481	1	18.85	3.4	0	0	1	0.953288863	-33.0638329	110	1	1.12	0.95;
	482	2	31.07	2.6	0	0	1	1	-7.79527519	110	1	1.12	0.95;
	483	1	36.66	9	0	0	1	0.99691697	-30.9966288	110	1	1.12	0.95;
	484	1	14.26	4	0	0	1	0.986263365	-28.911282	110	1	1.12	0.95;
	485	1	46.84	11	0	0	1	0.993970558	-27.4526347	110	1	1.12	0.95;
	486	1	11.2	4	0	0	1	0.997984145	-29.1628658	110	1	1.12	0.95;
	487	1	12.83	1.1	0	0	1	0.949675654	-33.2920057	110	1	1.12	0.95;
	488	1	2	1	0	0	1	0.998454873	-31.0416193	110	1	1.12	0.95;
	489	1	22.4	5	0	0	1	0.995159757	-27.0456042	110	1	1.12	0.95;
	490	1	18.34	4	0	0	1	0.990864992	-30.4941854	110	1	1.12	0.95;
	491	1	36.66	9	0	0	1	0.99096849	-30.4386916	110	1	1.12	0.95;
	492	2	10.18	0.9	0	0	1	1	-30.1391161	110	1	1.12	0.95;
	493	2	44.81	21	0	0	1	1	-26.0882734	110	1	1.12	0.95;
	494	2	38.7	22	0	0	1	1	-29.2980023	110	1	1.12	0.95;
	495	1	11.2	3	0	0	1	0.999197175	-29.3585658	110	1	1.12	0.95;
	496	1	12.22	3	0	0	1	0.999152305	-26.155028	110	1	1.12	0.95;
	497	1	24.44	6	0	0	1	0.993288665	-30.1818554	110	1	1.12	0.95;
	498	1	24.44	4	0	0	1	0.990131328	-30.4384791	110	1	1.12	0.95;
	499	1	21.42	3	0	0	1	0.995689961	-30.9686599	110	1	1.12	0.95;
	500	1	5.1	1	0	0	1	0.997249942	-26.6089548	110	1	1.12	0.95;
	501	1	52.95	12	0	0	1	0.992199383	-30.7439167	110	1	1.12	0.95;
	502	1	40.74	10	0	0	1	0.995944812	-30.9235963	110	1	1.12	0.95;