function mpc = case6495rte_res
%CASE6495RTE_RES

%% MATPOWER Case Format : Version 2
mpc.version = '2';

%%-----  Power Flow Data  -----%%
%% system MVA base
mpc.baseMVA = 100;

%% bus data
%	bus_i	type	Pd	Qd	Gs	Bs	area	Vm	Va	baseKV	zone	Vmax	Vmin
mpc.bus = [
	1	1	0	0	0	0	1	0.979893034	-10.3701217	45	1	1	0.888889;
	2	1	0	0	0	0	1	1.03715025	-10.3487391	63	1	1.06349	0.936508;
	3	1	13.1	2.6	0	0	1	1.02433172	-12.8467184	63	1	1.07937	0.952381;
	4	1	49.2	3.4	0	0	1	1.0392135	-24.10863	90	1	1.08889	0.933333;
	5	1	11	0	0	0	1	1.01936348	-52.5434171	63	1	1.06349	0.952381;
	6	1	13	4.3	0	0	1	1.02004802	-21.241632	63	1	1.07937	0.920635;
	7	1	1.2	0.7	0	0	1	1.04792706	-23.3217219	63	1	1.07937	0.920635;
	8	1	24.6	13.1	0	0	1	1.04830195	-17.3633763	225	1	1.08889	0.888889;
	9	1	14.9	0	0	0	1	1.0457517	-17.7062317	63	1	1.06349	0.936508;
	10	1	0	0	0	0	1	1.03364016	-22.9654866	90	1	1.07778	0.922222;
	11	1	30.7	-2	0	0	1	1.03363994	-22.9654841	90	1	1.07778	0.922222;
	12	1	0	0	0	0	1	1.01664069	1.01993516	63	1	1.07937	0.952381;
	13	1	0	0	0	0	1	1.05890205	-3.63969357	380	1	1.10263	1.05313;
	14	1	52.7	13.4	0	30.4	1	1.06714683	-31.2195018	90	1	1.07778	0.977778;
	15	1	0	0	0	0	1	1.03133857	-23.3355069	63	1	1.07937	0.920635;
	16	1	12.5	-0.6	0	0	1	1.03134679	-29.0245827	63	1	1.07937	0.920635;
	17	1	10.9	0.2	0	0	1	1.04794595	-31.3414566	90	1	1.06667	0.977778;
	18	1	0	0	0	0	1	0.936377773	-5.05868218	45	1	1	0.888889;
	19	1	0	0	0	0	1	1.0308717	-20.3129598	63	1	1.06349	0.936508;
	20	1	3.9	-18.2	0	0	1	0.937158453	-5.09346742	45	1	1	0.888889;
	21	1	6.3	-2.5	0	0	1	1.03894872	-19.7059872	90	1	1.06667	0.977778;
	22	1	17.3	0.8	0	0	1	1.02417068	-13.0099949	63	1	1.07937	0.952381;
	23	1	24.4	1.4	0	0	1	1.01426877	-10.2108114	63	1	1.06349	0.936508;
	24	1	16.7	-1.3	0	0	1	1.04175688	-22.5295889	90	1	1.11111	0.955556;
	25	1	51.1	-4	0	0	1	1.07638926	-18.9218743	90	1	1.1	0.944444;
	26	1	32.4	5	0	0	1	1.03527519	-25.0948661	90	1	1.06667	0.977778;
	27	1	0	0	0	0	1	1.06660838	-20.5080802	225	1	1.08444	1.00444;
	28	1	0	-0.2	0	0	1	1.03351271	-20.2093639	63	1	1.07937	0.952381;
	29	1	75	9.3	0	0	1	0.993975231	-23.1292277	63	1	1.06349	0.968254;
	30	1	37.6	3.3	0	0	1	1.03314256	-23.1711357	90	1	1.08889	0.933333;
	31	1	0	0	0	0	1	1.03625025	-8.98642055	63	1	1.06349	0.936508;
	32	1	0	0	0	0	1	1.04470301	-3.80007307	150	1	1.10667	0.9;
	33	1	0	0	0	0	1	1.05413663	-6.20664647	225	1	1.08889	0.933333;
	34	1	0	0	0	0	1	1.04983154	-5.53679834	225	1	1.08889	0.933333;
	35	1	0	0	0	0	1	1.07133354	-4.98552395	380	1	1.10526	1.03947;
	36	1	0	0	0	0	1	1.07322036	-3.89592591	380	1	1.10526	1.03947;
	37	1	2.4	4.7	0	0	1	1.01508935	-25.6223235	63	1	1.07937	0.920635;
	38	1	8	3	0	0	1	1.0352819	-20.7736586	63	1	1.09524	0.936508;
	39	1	40.6	-4.9	0	0	1	1.01381522	-38.8390535	90	1	1.07778	0.977778;
	40	1	34.7	5.1	0	0	1	1.05527449	-29.4692995	90	1	1.07778	0.977778;
	41	1	0	0	0	0	1	1.07410024	-25.838837	225	1	1.09152	1.00444;
	42	1	0	0	0	0	1	1.12162005	4.48783928	63	1	1.12834	0.952381;
	43	1	3.3	2.7	0	0	1	1.04783898	-26.6647367	90	1	1.07778	0.977778;
	44	1	15.2	1.6	0	0	1	1.02768593	-49.8064871	63	1	1.06349	0.952381;
	45	1	3.8	0.8	0	0	1	1.02336375	-33.395119	90	1	1.06667	0.977778;
	46	1	0	0	0	0	1	1.03292487	-15.1057388	63	1	1.06349	0.936508;
	47	2	0	0	0	0	1	1.027	-12.083344	63	1	1.06349	0.936508;
	48	1	38.6	3.9	0	0	1	1.03526822	-23.958526	90	1	1.07778	0.922222;
	49	1	9.9	-2.6	0	0	1	1.0370246	-15.831917	63	1	1.06349	0.936508;
	50	1	0	0	0	0	1	1.07071548	-13.4366457	63	1	1.07458	0.936508;
	51	1	0	0	0	0	1	1.05549546	-8.72021398	225	1	1.08889	0.933333;
	52	1	8	3.5	0	0	1	1.03612193	-34.8305855	90	1	1.06667	0.977778;
	53	1	0.1	-1.2	0	0	1	1.00766185	-27.1124989	63	1	1.04762	0.952381;
	54	1	-0.6	1.2	0	0	1	1.03886173	-17.8020842	90	1	1.06667	0.977778;
	55	1	49	11.3	0	0	1	1.07439337	-28.5258789	225	1	1.08991	1.00444;
	56	1	78.6	22.5	0	0	1	1.06403385	-24.7096761	225	1	1.08889	1.00444;
	57	2	0	0	0	0	1	1.061	-19.067579	63	1	1.07937	0.920635;
	58	1	146.7	32.5	0	0	1	1.07422414	-28.5409205	225	1	1.08975	1.00444;
	59	1	5.1	0.4	0	0	1	1.04830259	-11.1628655	63	1	1.07937	0.952381;
	60	1	0	0	0	0	1	1.03839799	-5.54443758	63	1	1.07937	0.952381;
	61	1	41.4	11.6	0	0	1	1.04122843	-7.53216271	63	1	1.07937	0.952381;
	62	1	0	0	0	0	1	1.02509396	-5.65577019	63	1	1.07937	0.952381;
	63	1	15.8	2	0	0	1	1.01103701	0.049135984	63	1	1.07937	0.952381;
	64	1	64.3	5.4	0	0	1	1.06588035	-16.5359813	225	1	1.08889	0.888889;
	65	1	12	2.9	0	0	1	1.05154169	-8.12036142	63	1	1.07937	0.952381;
	66	1	14.4	-6.8	0	0	1	1.04161738	-24.3527071	63	1	1.06349	0.936508;
	67	1	1	0	0	0	1	1.04174355	-20.4465623	63	1	1.07937	0.920635;
	68	1	48.7	3.8	0	0	1	1.02271659	-15.0357333	63	1	1.06349	0.936508;
	69	1	17.3	-1.6	0	0	1	1.04469441	-53.9190338	63	1	1.06349	0.952381;
	70	1	11.7	3.5	0	0	1	1.02111679	1.75894029	63	1	1.07937	0.952381;
	71	1	68.8	17.2	0	0	1	1.02187174	-27.6286944	63	1	1.04762	0.952381;
	72	1	0	0	0	0	1	1.07905772	-20.4387836	225	1	1.08892	1.00444;
	73	1	0	0	0	0	1	1.07905853	-20.4380188	225	1	1.08892	1.00444;
	74	1	53.3	-8.7	0	0	1	1.06637836	-16.3856315	225	1	1.08889	0.888889;
	75	1	25	1.6	0	0	1	1.04842046	-21.1753287	90	1	1.06667	0.977778;
	76	1	9	0.7	0	0	1	1.07517032	3.48570661	225	1	1.08889	0.986667;
	77	1	40.8	-1.5	0	0	1	1.02800445	-16.3282866	63	1	1.06349	0.936508;
	78	1	0	0	0	0	1	1.03831898	-26.317676	63	1	1.07937	0.920635;
	79	1	0	0	0	0	1	1.01089841	-26.176579	63	1	1.04762	0.952381;
	80	1	34.6	10.4	0	0	1	1.04923048	-25.8414379	225	1	1.08889	1.00444;
	81	1	34.6	9	0	0	1	1.04924991	-25.8413673	225	1	1.08889	1.00444;
	82	1	11.6	-0.2	0	0	1	1.03843757	-16.7192443	63	1	1.06349	0.936508;
	83	1	92.4	64.5	0	0	1	1.05946458	-26.2875365	225	1	1.08889	1.00444;
	84	1	1.4	-0.2	0	0	1	1.02536595	-12.5263292	63	1	1.06349	0.936508;
	85	1	1.8	-2	0	0	1	1.04847453	-16.0470329	63	1	1.06568	0.936508;
	86	1	44.9	3.7	0	0	1	1.03240005	-42.3477369	90	1	1.06667	0.977778;
	87	1	0	0	0	0	1	1.02476014	0.195931761	63	1	1.07937	0.952381;
	88	1	15.9	2	0	0	1	1.03992314	-18.4923263	63	1	1.06349	0.936508;
	89	1	25.7	0.4	0	0	1	1.04374964	-29.2075486	90	1	1.07778	0.977778;
	90	1	0.4	-2.3	0	0	1	0.9411413	-5.76250472	45	1	1	0.888889;
	91	1	0	0	0	0	1	0.936377773	-5.05868218	45	1	1	0.888889;
	92	1	31.6	3.2	0	0	1	1.01482011	-18.968519	63	1	1.06349	0.968254;
	93	1	2.2	-2.2	0	0	1	0.953435365	-7.7176791	45	1	1	0.888889;
	94	1	16.9	-4.6	0	0	1	1.04421443	-24.0492595	90	1	1.06667	0.977778;
	95	1	53.2	9.3	0	0	1	1.03697618	-34.7237474	90	1	1.06667	0.977778;
	96	1	1.2	0.1	0	0	1	1.05121476	-8.3199928	63	1	1.06349	0.936508;
	97	1	55	1.6	0	0	1	1.03680941	-23.8899805	63	1	1.07937	0.920635;
	98	1	7.7	-2.1	0	0	1	1.03306299	-19.2987141	63	1	1.07937	0.952381;
	99	1	31.9	5	0	0	1	1.0475342	-7.20746909	63	1	1.07937	0.952381;
	100	1	59.9	8.9	0	0	1	1.02153606	-14.1071673	63	1	1.06349	0.936508;
	101	1	17.1	0.1	0	0	1	1.01462219	-13.3347114	63	1	1.06349	0.936508;
	102	2	0	0	0	0	1	1.03	-14.732623	63	1	1.07937	0.952381;
	103	1	13	-1.4	0	0	1	1.04168195	-5.90577943	63	1	1.07937	0.952381;
	104	1	0	0	0	0	1	1.07376317	-3.23433594	225	1	1.08889	0.986667;
	105	1	37.7	0.8	0	0	1	1.04768589	-15.0387009	225	1	1.08889	0.888889;
	106	1	56.3	8.2	0	0	1	1.05807326	-19.8681003	90	1	1.1	0.944444;
	107	1	107.4	13.9	0	0	1	1.04740389	-28.4234935	225	1	1.08444	1.00889;
	108	1	12.7	-3.9	0	0	1	1.05194743	-24.8883183	90	1	1.07778	0.977778;
	109	1	60.8	4.1	0	0	1	1.04888744	-12.4790952	63	1	1.06837	0.936508;
	110	1	0	0	0	0	1	1.03317491	-8.82473812	225	1	1.08889	0.933333;
	111	1	37.3	-7.4	0	0	1	1.00285441	-21.3893865	63	1	1.06349	0.968254;
	112	1	0	0	0	0	1	1.02277457	-27.3224882	63	1	1.04762	0.952381;
	113	1	0	0	0	0	1	1.05428212	-23.8419586	225	1	1.08889	1.00444;
	114	1	12.9	0.7	0	0	1	1.0469947	-11.7068734	63	1	1.06349	0.936508;
	115	1	0	0	0	0	1	1.05891122	-3.63977695	380	1	1.10526	1.05263;
	116	1	0	0	0	0	1	1.05891122	-3.63977695	380	1	1.10526	1.05263;
	117	1	12.8	-2.1	0	0	1	1.02390893	-18.2962926	63	1	1.07937	0.952381;
	118	1	2	0.8	0	0	1	1.05080119	-20.8533655	90	1	1.06667	0.977778;
	119	1	40.3	3.7	0	0	1	1.01921762	-10.1737255	63	1	1.06349	0.936508;
	120	1	22	-2.3	0	0	1	1.01796489	-9.15059926	63	1	1.06349	0.936508;
	121	1	22.1	6.8	0	0	1	1.02368033	-25.6578856	63	1	1.07937	0.920635;
	122	2	0	0	0	0	1	1.038	-6.82005948	63	1	1.07937	0.952381;
	123	1	11	3.7	0	0	1	1.0359314	-6.94681031	63	1	1.07937	0.952381;
	124	1	8.9	-2.2	0	0	1	1.04547531	-27.3901603	90	1	1.06667	0.977778;
	125	1	11.6	-1.2	0	0	1	1.03277612	-13.5999451	63	1	1.07937	0.952381;
	126	1	0.4	0.3	0	0	1	1.05036369	-16.016882	63	1	1.06349	0.936508;
	127	1	10.7	2.9	0	0	1	1.01431466	-29.9984917	63	1	1.04762	0.952381;
	128	1	13.4	5	0	0	1	1.02103076	-11.2910827	63	1	1.06349	0.968254;
	129	1	17	12.8	0	0	1	1.01953556	-9.55034548	63	1	1.06349	0.968254;
	130	1	0	0	0	0	1	1.0490439	-8.71877411	225	1	1.08444	1.00889;
	131	1	110.7	4.4	0	0	1	1.04723334	-16.2527111	225	1	1.08444	1.00889;
	132	2	9.4	0	0	0	1	1.068	-17.173039	90	1	1.07778	0.922222;
	133	1	2.5	-0.1	0	0	1	0.98577194	-29.7437817	63	1	1.04762	0.952381;
	134	1	101.1	28.6	0	0	1	1.03201673	-26.572465	225	1	1.08889	1.00444;
	135	1	0	0	0	0	1	1.07521745	-28.3554836	225	1	1.09072	1.00444;
	136	1	23.7	0.6	0	0	1	1.04368466	-37.7171427	90	1	1.07778	0.977778;
	137	2	8.1	-3.8	0	0	1	1.032	-12.8820091	63	1	1.06349	0.968254;
	138	1	0	0	0	0	1	1.05024708	-11.0687847	150	1	1.08	0.966667;
	139	1	15.7	4.1	0	0	1	1.03445562	-16.9323033	63	1	1.07937	0.920635;
	140	1	0	0	0	80	1	1.05987231	-13.2187764	225	1	1.08889	1;
	141	1	0	0	0	0	1	1.06803926	-9.78758743	380	1	1.10526	1.05263;
	142	1	12.5	1.1	0	0	1	1.0517317	-10.7247553	63	1	1.07937	0.952381;
	143	1	0	0	0	0	1	1.06966695	-6.31887448	225	1	1.08889	0.986667;
	144	1	8.9	2.5	0	0	1	1.04615994	-20.7097917	90	1	1.11111	0.955556;
	145	1	24	7.7	0	0	1	1.06730871	-16.2761653	225	1	1.08889	0.968889;
	146	1	0	0	0	0	1	1.07893564	-13.2498267	380	1	1.10526	1;
	147	1	28	4.6	0	0	1	1.0460681	-14.7808533	63	1	1.06349	0.936508;
	148	1	6.6	1.5	0	0	1	1.04459983	-12.0954914	63	1	1.06349	0.936508;
	149	1	15.9	4.2	0	0	1	1.04278469	-33.9883126	90	1	1.06667	0.977778;
	150	1	48.4	1	0	0	1	1.0345059	-9.48515423	63	1	1.06349	0.936508;
	151	1	0	0	0	0	1	0.984485148	-24.2362902	63	1	1.06349	0.968254;
	152	1	42.6	9.4	0	7.7	1	0.984373938	-22.981945	63	1	1.06349	0.968254;
	153	1	26.9	-4.9	0	0	1	1.0418119	-10.7302145	63	1	1.06349	0.936508;
	154	1	0	0	0	0	1	1.06419137	-7.45300999	225	1	1.08889	0.933333;
	155	2	0	0	0	0	1	1.04606359	-21.1341594	63	1	1.07937	0.920635;
	156	1	0	0	0	0	1	0.984438544	-24.2413503	63	1	1.06349	0.968254;
	157	1	-1.4	-2.3	0	0	1	0.930339828	-9.07548345	45	1	1	0.888889;
	158	2	0	0	0	0	1	0.963	-8.5048192	45	1	1	0.888889;
	159	1	0	0	0	0	1	1.03333218	-11.9268134	63	1	1.06349	0.936508;
	160	1	39.6	5.7	0	0	1	1.05587049	-13.5327306	225	1	1.08889	0.888889;
	161	1	40.6	10.8	0	0	1	1.05565474	-13.5340207	225	1	1.08889	0.888889;
	162	1	-0.1	-1.2	0	0	1	1.02219856	-24.9361272	90	1	1.06667	0.977778;
	163	1	0	0	0	0	1	1.02286077	-6.43581448	63	1	1.07937	0.952381;
	164	1	0	0	0	0	1	1.02286077	-6.43581448	63	1	1.07937	0.952381;
	165	1	12.5	6.7	0	0	1	1.07403518	-29.5444153	20	1	1.15	0.8;
	166	1	8.1	-0.3	0	0	1	1.04275466	-33.6369752	90	1	1.06667	0.977778;
	167	1	8.3	-2	0	0	1	1.04027647	-34.1045556	90	1	1.06667	0.977778;
	168	1	0	0	0	0	1	1.07409653	-29.5394881	225	1	1.08444	1.00444;
	169	1	9.1	-0.5	0	0	1	1.03640063	-29.6642408	90	1	1.06667	0.977778;
	170	1	78.8	13.1	0	0	1	1.04459061	-29.4437452	90	1	1.07778	0.977778;
	171	1	26.3	-0.9	0	30	1	1.05951005	-32.3538123	90	1	1.07921	0.977778;
	172	1	0	0	0	0	1	1.06881147	-28.1896468	225	1	1.08889	1.00444;
	173	1	28.9	8.2	0	0	1	1.07000053	-17.9329578	90	1	1.08889	0.933333;
	174	1	54.8	9.7	0	0	1	1.07058638	-20.6292956	90	1	1.11111	0.955556;
	175	1	0	0	0	0	1	1.02623845	-20.3937289	63	1	1.07937	0.920635;
	176	2	0	0	0	0	1	1.09807384	-18.1641948	150	1	1.1	0.9;
	177	1	0	0	0	0	1	1.06740858	-26.5883642	225	1	1.08889	1.00444;
	178	1	0	0	0	0	1	1.0674088	-26.5883654	225	1	1.08889	1.00444;
	179	1	0	0	0	0	1	1.01447721	-29.9887929	63	1	1.04762	0.952381;
	180	1	0	0	0	0	1	1.0674073	-26.5883573	225	1	1.08889	1.00444;
	181	1	14.2	-5	0	0	1	1.04276468	-25.6949298	63	1	1.07937	0.920635;
	182	1	15	4.1	0	0	1	1.04407776	-9.35969451	63	1	1.06349	0.936508;
	183	1	6.2	-0.7	0	0	1	1.03668709	-19.3207635	63	1	1.07937	0.952381;
	184	1	4	1.4	0	0	1	1.06425698	-26.0511979	90	1	1.07778	0.977778;
	185	1	28.1	2.7	0	0	1	1.04327822	-11.5375379	63	1	1.07937	0.952381;
	186	1	0.4	1.3	0	0	1	1.0290045	-23.5036342	90	1	1.06667	0.977778;
	187	2	0	0	0	0	1	1.05051182	-20.9832874	63	1	1.07937	0.920635;
	188	1	0	0	0	0	1	1.09615659	-19.2176752	63	1	1.10211	0.920635;
	189	1	16.4	2.1	0	0	1	1.03429537	-24.0791306	63	1	1.07937	0.920635;
	190	2	0	0	0	0	1	0.949967726	-6.95667282	45	1	1	0.888889;
	191	1	14.3	-1.2	0	0	1	1.03808605	-29.7211055	90	1	1.06667	0.977778;
	192	1	7.2	-2	0	0	1	1.06203927	-19.6768212	63	1	1.07937	0.920635;
	193	1	-0.3	0.8	0	0	1	1.05393535	-24.349753	225	1	1.08889	1.00444;
	194	2	0.7	-2.2	0	0	1	1.059	-24.4518399	63	1	1.07937	0.920635;
	195	1	0	0	0	0	1	1.05832148	-26.6629189	63	1	1.07545	0.952381;
	196	1	0	0	0	0	1	1.05832292	-26.6629615	63	1	1.07546	0.952381;
	197	1	27.3	0.8	0	15	1	1.0202662	-31.8602742	63	1	1.07937	0.920635;
	198	1	10	-0.7	0	0	1	1.03635018	-21.1733129	63	1	1.07937	0.920635;
	199	1	11.4	1.5	0	0	1	1.02199191	-40.0115008	90	1	1.06667	0.977778;
	200	1	0	0	0	0	1	1.08301901	-22.286457	225	1	1.08889	1;
	201	1	62.6	22.9	0	0	1	1.04436274	-15.3817849	225	1	1.08889	0.888889;
	202	1	48.1	0.6	0	0	1	0.989677175	-27.5463841	63	1	1.06349	0.968254;
	203	1	23.4	3.7	0	0	1	1.06042657	-15.4629975	90	1	1.1	0.944444;
	204	1	0	0	0	0	1	1.06978953	-11.9414342	225	1	1.08889	0.968889;
	205	1	0	0	0	0	1	1.08582544	-8.29576323	380	1	1.10526	1;
	206	1	50.6	6.4	0	0	1	1.0064034	-25.3232224	63	1	1.06349	0.968254;
	207	1	32.8	5	0	0	1	1.00209573	-12.385073	63	1	1.06349	0.968254;
	208	1	18	-0.4	0	0	1	1.03674343	-25.0690225	90	1	1.07778	0.977778;
	209	1	0.6	1.4	0	0	1	1.01697832	-18.8817998	63	1	1.06349	0.968254;
	210	1	41.1	6.8	0	0	1	0.999946945	-15.2533547	63	1	1.06349	0.968254;
	211	1	28.1	13.4	0	0	1	0.999986464	-15.1017577	63	1	1.06349	0.968254;
	212	1	0	0	0	0	1	1.04467152	-15.0496125	225	1	1.08444	1.00889;
	213	1	0	0	0	0	1	1.04460491	-15.0327028	225	1	1.08444	1.00889;
	214	1	40.9	3.5	0	30.4	1	1.05351713	-33.7788015	90	1	1.07778	0.977778;
	215	1	0	0	0	0	1	1.06315028	-30.0345387	225	1	1.08889	1.00444;
	216	1	20.6	-4	0	0	1	0.999755135	-16.3857152	63	1	1.06349	0.952381;
	217	1	26.6	2.7	0	0	1	1.0263754	-29.8383311	90	1	1.06667	0.977778;
	218	1	-0.6	1.1	0	0	1	1.03926693	-17.8244181	90	1	1.06667	0.977778;
	219	1	12	-3.2	0	0	1	1.05982358	-28.4208392	90	1	1.06812	0.977778;
	220	1	12.7	1.4	0	0	1	1.02397084	0.00665531583	63	1	1.07937	0.952381;
	221	1	8.6	-3.8	0	0	1	1.03812722	-17.1980979	63	1	1.06349	0.936508;
	222	1	0	0	0	0	1	1.09095417	-14.4415415	225	1	1.09432	0.933333;
	223	1	41.4	-0.1	0	0	1	1.03147633	-25.8440173	63	1	1.07937	0.920635;
	224	2	0	0	0	0	1	1.09802378	-18.1632228	150	1	1.1	0.9;
	225	1	66.8	4.8	0	0	1	1.05186851	-14.6640817	225	1	1.08444	1.00889;
	226	1	66.8	43.8	0	0	1	1.05124556	-14.6577314	225	1	1.08444	1.00889;
	227	1	5	-1.8	0	0	1	1.02145525	-55.9459943	63	1	1.06349	0.952381;
	228	1	10.9	-2	0	0	1	1.0175902	-56.477064	63	1	1.06349	0.952381;
	229	1	10.5	-3.1	0	0	1	1.0481252	-21.0513559	63	1	1.07937	0.920635;
	230	1	0	0	0	0	1	1.05158396	-14.8105899	225	1	1.08889	0.977778;
	231	1	7	-1.4	0	0	1	1.03927734	-29.0207905	90	1	1.06667	0.977778;
	232	1	5.1	0.9	0	0	1	1.03286137	-13.1002751	90	1	1.08889	0.933333;
	233	1	0	0	0	0	1	1.05368206	-14.6207331	20	1	1.15	0.8;
	234	1	23	7.1	0	0	1	1.05368206	-14.6207331	90	1	1.08889	0.933333;
	235	1	14.9	2.2	0	0	1	1.0683285	-11.2930141	225	1	1.08889	0.888889;
	236	1	23.8	1.3	0	0	1	1.04936732	-22.455974	90	1	1.07778	0.922222;
	237	1	40.5	3.2	0	0	1	1.04651526	-10.3612655	63	1	1.06349	0.936508;
	238	1	25	-2.5	0	0	1	1.03907617	-27.9449847	90	1	1.06667	0.977778;
	239	1	52.1	2	0	0	1	1.02356501	-58.1262166	63	1	1.06349	0.952381;
	240	1	46.6	6.6	0	0	1	1.03846198	-26.315397	63	1	1.07937	0.920635;
	241	1	52.9	7.4	0	0	1	1.02315926	-24.2290946	90	1	1.07778	0.922222;
	242	1	56.3	9.3	0	0	1	0.994240307	-24.9739985	63	1	1.06349	0.968254;
	243	1	27.7	-3.4	0	0	1	1.02057469	-28.509544	63	1	1.07937	0.920635;
	244	1	52.3	2.2	0	0	1	1.05012014	-18.0499242	90	1	1.07778	0.922222;
	245	1	13.7	-2.2	0	0	1	1.02318028	-27.1643676	63	1	1.07937	0.920635;
	246	2	10.5	3.9	0	0	1	1.01843735	-4.66040215	63	1	1.06349	0.936508;
	247	1	0	0	0	0	1	1.05016617	-3.22688388	225	1	1.08889	0.933333;
	248	1	32.4	13.6	0	0	1	1.06279228	-24.9715148	225	1	1.08889	1.00444;
	249	1	22.8	-2.7	0	0	1	1.02988452	-28.4976825	63	1	1.07937	0.920635;
	250	1	26.2	-8.1	0	0	1	1.02156271	-22.6773074	63	1	1.07937	0.952381;
	251	1	11.3	1.7	0	0	1	1.0350235	-33.2394535	90	1	1.06667	0.977778;
	252	1	10.1	-2.2	0	0	1	1.02940016	-24.0026812	90	1	1.06667	0.977778;
	253	1	50.7	3.9	0	0	1	1.0344987	-19.6926306	63	1	1.07937	0.952381;
	254	1	17.8	3.6	0	0	1	1.03093741	-19.8539786	63	1	1.07937	0.952381;
	255	1	10.5	2.1	0	0	1	1.02472731	-19.2210164	63	1	1.06349	0.936508;
	256	2	2.8	0	0	0	1	1.047	-21.7810883	63	1	1.07937	0.920635;
	257	1	0	0	0	0	1	1.08035266	-22.4691557	225	1	1.08889	1;
	258	2	-0	0	0	0	1	1.079	-13.1278998	90	1	1.07924	0.922222;
	259	1	32.3	3.1	0	0	1	1.05321272	-17.7454584	63	1	1.07937	0.952381;
	260	1	0	0	0	0	1	1.06852015	-15.5381967	225	1	1.08889	0.986667;
	261	2	0	0	0	0	1	1.03809865	-27.8677284	63	1	1.07937	0.920635;
	262	1	0	0	0	80	1	1.0622421	-12.5277262	225	1	1.08889	0.888889;
	263	1	0	0	0	0	1	1.04941575	-14.3064778	225	1	1.08889	0.888889;
	264	1	0	0	0	0	1	1.06202963	-8.654677	380	1	1.10526	1.01316;
	265	1	0	0	0	0	1	1.00037743	-28.0963909	63	1	1.04762	0.952381;
	266	1	29.7	8.4	0	0	1	1.06452561	-24.6500307	225	1	1.08889	1.00444;
	267	1	65.5	9.9	0	0	1	1.04841331	-26.0445853	225	1	1.08889	1.00444;
	268	1	13.2	13.1	0	0	1	1.00327695	-18.4369502	63	1	1.07937	0.920635;
	269	1	24.5	1.6	0	0	1	1.00878338	-29.9317809	63	1	1.07937	0.920635;
	270	1	0	0	0	0	1	1.04268388	-10.3355891	225	1	1.08889	0.977778;
	271	1	0	0	0	0	1	1.0428363	-10.3351645	225	1	1.08889	0.977778;
	272	1	44.2	6.9	0	0	1	1.02404241	-15.7128177	63	1	1.06349	0.968254;
	273	1	29.5	5	0	0	1	1.03982612	-11.1668893	225	1	1.08444	1.00889;
	274	1	53.3	7.5	0	0	1	1.0714048	-20.5430918	90	1	1.1	0.944444;
	275	1	0	0	0	0	1	1.07708731	-25.1884339	225	1	1.08444	1.00444;
	276	1	0	0	0	0	1	1.08644504	-19.4643022	380	1	1.10263	1.04211;
	277	1	1.8	3	0	0	1	1.0457138	-27.984766	90	1	1.06667	0.977778;
	278	1	-1.7	4.6	0	0	1	1.07684776	-25.2451697	225	1	1.08444	1.00444;
	279	1	12	-1.1	0	0	1	1.021504	-21.2995365	63	1	1.06349	0.936508;
	280	1	48.8	7.7	0	0	1	1.05012136	-33.9616096	90	1	1.07778	0.977778;
	281	1	11.8	-0	0	0	1	1.01994468	-15.2281717	63	1	1.07937	0.952381;
	282	2	0	0	0	0	1	1.01843785	-4.6604137	63	1	1.06349	0.936508;
	283	1	10.8	-1	0	0	1	1.03614937	-34.9693484	90	1	1.06667	0.977778;
	284	1	16.1	3.1	0	0	1	1.0175871	1.26553175	63	1	1.07937	0.952381;
	285	1	0.3	5.7	0	0	1	1.06500363	-24.5303583	225	1	1.08889	1.00444;
	286	1	31.3	25.5	0	0	1	1.06479408	-24.5443368	225	1	1.08889	1.00444;
	287	1	27.8	-2	0	0	1	1.04152649	-24.6987281	90	1	1.06667	0.977778;
	288	1	34.7	-1.1	0	0	1	1.03994245	-30.515417	90	1	1.06667	0.977778;
	289	1	27.3	-6.6	0	0	1	1.07741012	-0.0399461924	225	1	1.08985	0.888889;
	290	1	3.4	3.9	0	0	1	1.0703758	-13.2470002	90	1	1.11111	0.955556;
	291	1	14.3	-1.9	0	0	1	1.02437552	-26.1933215	63	1	1.07937	0.920635;
	292	1	0	0.5	0	0	1	1.03860197	-13.2363045	63	1	1.06349	0.936508;
	293	1	43	-1.7	0	0	1	1.03862016	-13.2368527	63	1	1.06349	0.936508;
	294	1	0	-0.9	0	0	1	1.03295859	-12.5874541	63	1	1.07937	0.952381;
	295	1	21.3	4.3	0	0	1	1.05390337	-16.1462183	225	1	1.08889	0.888889;
	296	1	8	-0.6	0	0	1	1.01890022	-18.3209082	63	1	1.07937	0.952381;
	297	1	1	-1	0	0	1	1.01367014	-19.2636525	63	1	1.06349	0.936508;
	298	1	13	0	0	0	1	1.00645207	-9.47215876	63	1	1.06349	0.936508;
	299	1	0	0.1	0	0	1	1.06418712	-13.3752446	90	1	1.11111	0.955556;
	300	1	54.4	17.4	0	0	1	1.06809892	-10.6994664	225	1	1.08889	0.888889;
	301	1	3.3	0.1	0	0	1	0.99857985	-12.5792952	63	1	1.06349	0.968254;
	302	1	16.3	3.7	0	0	1	1.02862264	-11.8774559	63	1	1.06349	0.936508;
	303	1	41.9	10.9	0	0	1	0.991381339	-34.6862142	63	1	1.07937	0.920635;
	304	1	35.5	-0.5	0	0	1	1.00633654	-23.8207298	63	1	1.06349	0.968254;
	305	2	0	0	0	0	1	1.053	-15.7337553	63	1	1.07088	0.936508;
	306	1	13.9	-1.5	0	0	1	1.01766806	-15.6055912	63	1	1.07937	0.952381;
	307	1	19.2	-2.8	0	0	1	1.01366522	-40.6947703	90	1	1.06667	0.977778;
	308	1	0.6	0.2	0	0	1	1.03987592	-25.989405	63	1	1.07937	0.920635;
	309	1	7	2.5	0	0	1	1.03283107	-28.3923496	63	1	1.06349	0.968254;
	310	1	12	3.5	0	0	1	1.0330945	-28.4174992	63	1	1.06349	0.968254;
	311	1	1.5	-0	0	0	1	1.01432128	-30.9064643	90	1	1.06667	0.977778;
	312	1	-2.5	-0.8	0	0	1	1.02079368	-10.630098	90	1	1.07778	0.922222;
	313	1	30.7	3.2	0	0	1	1.04229698	-22.3084723	63	1	1.07937	0.920635;
	314	1	0	0	0	0	1	1.06964042	-18.4801035	225	1	1.08889	1;
	315	1	20.8	-1.1	0	0	1	1.0634121	-26.2365273	90	1	1.07778	0.977778;
	316	1	28.6	7.2	0	0	1	1.02464362	-26.5329862	63	1	1.07937	0.920635;
	317	2	0	0	0	0	1	1.06376485	-20.2498162	63	1	1.07937	0.920635;
	318	1	13.3	4.1	0	0	1	1.02107032	-27.7756412	63	1	1.04762	0.952381;
	319	2	0	0	0	0	1	1.03536964	-27.4133952	63	1	1.07937	0.920635;
	320	1	35	4.3	0	0	1	1.06015464	-18.3247311	90	1	1.1	0.944444;
	321	1	0	0	0	0	1	1.05199905	-24.6866118	63	1	1.07937	0.920635;
	322	1	0	0	0	0	1	1.03020477	-14.7960221	225	1	1.08889	1;
	323	1	0	0	0	0	1	1.06835468	-14.6368786	380	1	1.10526	1.05263;
	324	1	26.4	4.7	0	0	1	1.03544012	-10.6255634	63	1	1.06349	0.936508;
	325	2	18.6	10.7	0	0	1	1.03522252	-13.5933279	63	1	1.06349	0.936508;
	326	1	10.8	17.1	0	0	1	1.05170366	-20.1910711	63	1	1.07937	0.920635;
	327	1	0	0	0	0	1	1.0551131	-17.0920845	225	1	1.08889	1;
	328	1	34.6	4.3	0	0	1	1.03149738	-22.2098294	63	1	1.07937	0.920635;
	329	1	73.9	3.5	0	0	1	1.06464218	-19.173333	90	1	1.1	0.944444;
	330	1	81.7	-1.6	0	0	1	1.04987846	-24.8066375	63	1	1.07937	0.920635;
	331	1	0	0	0	0	1	1.07080752	-20.5063592	225	1	1.08889	1;
	332	2	8.4	-0.2	0	0	1	1.03194431	-32.0889346	63	1	1.06349	0.968254;
	333	2	0	0	0	0	1	1.04738981	-25.0725656	150	1	1.08	0.966667;
	334	1	6.9	-3.3	0	0	1	1.04947457	-53.1413332	63	1	1.06349	0.952381;
	335	1	8	0	0	0	1	1.03396225	-17.2327512	63	1	1.06349	0.936508;
	336	2	0.7	0	0	0	1	1.026	-21.9425513	63	1	1.07937	0.920635;
	337	1	14.6	-0.6	0	0	1	1.04516173	-27.8602154	63	1	1.07937	0.920635;
	338	2	0	0	0	0	1	1.06787506	-22.9212521	63	1	1.07937	0.920635;
	339	1	15.1	2.3	0	0	1	1.04196715	-24.7052814	63	1	1.07937	0.920635;
	340	1	23.8	1	0	0	1	1.05538344	-27.7212133	90	1	1.06667	0.977778;
	341	1	7.3	-10.4	0	0	1	1.06004478	-25.3286651	63	1	1.07937	0.920635;
	342	1	12.1	-2.7	0	0	1	1.02535196	-13.4803025	63	1	1.07937	0.952381;
	343	1	0	0	0	0	1	1.03200453	-10.5086559	225	1	1.08889	0.986667;
	344	1	11.9	-3.5	0	0	1	1.00896901	-15.5213897	63	1	1.06349	0.968254;
	345	1	27.4	-5.7	0	0	1	1.03264588	-25.6545651	90	1	1.07778	0.977778;
	346	1	13.1	0.2	0	0	1	1.0615341	-6.79921609	225	1	1.08444	1.00889;
	347	1	-1.4	-0.3	0	0	1	1.03885218	-28.4610909	63	1	1.06349	0.968254;
	348	1	54	7.1	0	0	1	1.06021012	-22.1916118	90	1	1.1	0.944444;
	349	1	0	0	0	0	1	1.09514547	-11.6511804	380	1	1.10695	1.04211;
	350	1	0	0	0	0	1	1.09513358	-11.6632473	380	1	1.10699	1.04211;
	351	1	26.7	5.9	0	0	1	1.07260669	-17.1653051	225	1	1.08889	1;
	352	1	11.5	11.6	0	0	1	1.06440836	-26.1799228	225	1	1.08889	1.00444;
	353	1	31.7	-8.3	0	0	1	1.02795822	-29.1849762	63	1	1.04762	0.952381;
	354	1	1.6	1.3	0	0	1	1.02851959	-20.0505047	63	1	1.07937	0.920635;
	355	1	3	-1.9	0	0	1	1.0495811	-9.99363475	63	1	1.07937	0.920635;
	356	1	6	2	0	0	1	1.02270615	-22.4961869	63	1	1.07937	0.920635;
	357	1	15.5	0.3	0	0	1	1.01639973	-13.4919793	63	1	1.07937	0.952381;
	358	1	23.7	7.8	0	0	1	1.02313934	-22.4674796	63	1	1.07937	0.920635;
	359	1	33.7	1.3	0	0	1	1.01652732	-23.6285066	63	1	1.06349	0.968254;
	360	1	54.2	1.5	0	19	1	1.0443874	-25.4958104	63	1	1.07937	0.920635;
	361	1	0	0	0	0	1	1.0747314	-21.7841986	150	1	1.1	0.9;
	362	1	0	0	0	0	1	1.07363604	-20.3554857	225	1	1.08889	1;
	363	1	9.5	5.1	0	0	1	1.07103299	-17.9371978	90	1	1.08889	0.933333;
	364	2	-3	0	0	0	1	1.049	-25.8909237	225	1	1.08889	1.00444;
	365	1	-0	-0.1	0	0	1	1.03404434	-9.17862138	63	1	1.06349	0.936508;
	366	1	0	0	0	0	1	1.04844496	-5.49599299	225	1	1.08889	0.933333;
	367	1	0	0	0	0	1	1.0731841	-3.84552762	380	1	1.10526	1.03947;
	368	1	0	0	0	0	1	1.07068959	-4.91931842	380	1	1.10526	1.03947;
	369	1	0	0	0	0	1	1.07474128	-28.5000476	225	1	1.09026	1.00444;
	370	1	62	14.3	0	0	1	1.03067238	-26.7885972	225	1	1.08889	1.00444;
	371	1	11.8	2.7	0	0	1	1.01070797	0.00280179925	63	1	1.07937	0.952381;
	372	1	0	0	0	0	1	1.04599643	-1.98589111	225	1	1.08889	0.986667;
	373	1	25	8.3	0	0	1	1.07455654	-28.5146044	225	1	1.09008	1.00444;
	374	1	23.9	1.1	0	0	1	1.00331835	-55.378639	63	1	1.06349	0.952381;
	375	1	15	-1.4	0	0	1	1.02627869	-35.7296007	90	1	1.06667	0.977778;
	376	1	53.8	1.5	0	0	1	1.02501454	-42.0890115	63	1	1.06349	0.952381;
	377	1	4.2	-1.9	0	0	1	1.02318897	-10.7127851	63	1	1.07937	0.952381;
	378	1	29.7	2.1	0	0	1	1.04732463	-15.8252418	63	1	1.06349	0.936508;
	379	1	0	0	0	0	1	1.05365152	-11.4072064	225	1	1.08889	0.933333;
	380	1	0	0	0	0	1	1.07558613	-8.61045302	380	1	1.10526	1.03947;
	381	1	49.3	5	0	0	1	1.03387672	-32.3497533	90	1	1.07778	0.977778;
	382	1	16.4	-0.9	0	0	1	1.02727683	-5.34587894	63	1	1.07937	0.952381;
	383	1	44.9	16.5	0	0	1	1.03946808	-15.0888531	63	1	1.07937	0.920635;
	384	1	18.2	2.1	0	0	1	1.00832137	-28.4900005	63	1	1.07937	0.920635;
	385	1	15.8	9.8	0	0	1	1.02142852	-4.34997045	63	1	1.07937	0.920635;
	386	1	42.8	9.1	0	0	1	1.07748509	-16.8655331	225	1	1.08889	1;
	387	1	5.7	-2	0	0	1	1.06366944	-15.8373776	90	1	1.07778	0.922222;
	388	1	44.7	1.2	0	0	1	1.05441067	-20.5450706	90	1	1.1	0.944444;
	389	1	26.8	0.5	0	0	1	1.04414763	-15.0204591	63	1	1.06349	0.936508;
	390	1	2.8	0.5	0	0	1	1.02341786	-15.7533539	63	1	1.06349	0.968254;
	391	1	21.2	-4.4	0	0	1	1.04334369	-22.4045081	63	1	1.07937	0.920635;
	392	1	29.2	0.1	0	0	1	1.00237277	-25.9721769	63	1	1.06349	0.968254;
	393	1	5	0.1	0	0	1	1.03609189	-15.3862565	63	1	1.07937	0.952381;
	394	1	6	2	0	0	1	1.03672915	-22.1727913	63	1	1.07937	0.920635;
	395	1	41	3.9	0	0	1	1.03683125	-22.1666124	63	1	1.07937	0.920635;
	396	1	0	0	0	0	1	1.04478083	-4.63582198	63	1	1.07937	0.952381;
	397	1	13	-2.4	0	0	1	1.04103864	-27.2966494	63	1	1.07937	0.920635;
	398	1	6	0.6	0	0	1	1.03692158	-34.8781179	90	1	1.06667	0.977778;
	399	1	3.5	3.8	0	0	1	1.06212102	-20.1138027	63	1	1.07937	0.920635;
	400	1	20.1	2	0	0	1	1.03908861	-23.5472803	63	1	1.07937	0.920635;
	401	1	5	0.1	0	0	1	1.04400561	-16.3182259	63	1	1.06349	0.936508;
	402	1	21.7	-0.2	0	0	1	1.03158916	-26.4529715	90	1	1.07778	0.922222;
	403	1	20	2.7	0	0	1	1.04449309	-11.193909	63	1	1.06349	0.936508;
	404	1	31.5	9.5	0	0	1	1.04392386	-13.4164019	63	1	1.06372	0.936508;
	405	1	6.9	3.7	0	0	1	1.02612371	-15.9178078	63	1	1.06349	0.936508;
	406	1	59.9	1.9	0	0	1	1.02659562	-25.9566979	90	1	1.06667	0.977778;
	407	1	0.6	0.2	0	0	1	1.04594346	-30.3014379	90	1	1.06667	0.977778;
	408	1	13.8	-4.1	0	0	1	1.05996133	-29.9670798	63	1	1.07937	0.920635;
	409	2	0	0	0	0	1	1.03010219	-24.9804814	63	1	1.06349	0.968254;
	410	1	20	1.9	0	0	1	1.03901446	-38.0955657	90	1	1.06667	0.977778;
	411	1	15.9	-0.7	0	0	1	1.0356958	-30.1626518	90	1	1.06667	0.977778;
	412	1	22.8	-5.3	0	0	1	1.01718355	-7.47533994	63	1	1.07937	0.952381;
	413	1	28.1	0.9	0	0	1	1.038116	-53.455088	63	1	1.06349	0.952381;
	414	1	-0.3	0.6	0	0	1	1.01311132	-16.972651	63	1	1.06349	0.936508;
	415	1	9.6	-1.7	0	0	1	1.02995282	-20.552434	63	1	1.07937	0.952381;
	416	1	20.4	-31.1	0	0	1	1.07022776	-27.3528307	225	1	1.08923	1.00444;
	417	1	18.3	5.2	0	0	1	1.04224417	-30.30094	63	1	1.07937	0.920635;
	418	1	9	3.1	0	0	1	1.01297644	-27.5702965	63	1	1.04762	0.952381;
	419	1	27.2	5.3	0	0	1	1.05465853	-29.1566405	63	1	1.07937	0.920635;
	420	1	-4.3	-0.7	0	0	1	1.05771546	-28.7461474	63	1	1.07937	0.920635;
	421	1	0	0	0	0	1	1.01514704	-33.8220316	63	1	1.06349	0.968254;
	422	1	0	0	0	0	1	1.04901882	-20.6652556	63	1	1.07937	0.920635;
	423	1	0	0	0	0	1	1.07617869	-17.7694679	225	1	1.08911	1;
	424	1	0	0	0	0	1	1.03781475	-2.26571502	63	1	1.07937	0.952381;
	425	1	0	0	0	0	1	1.06679882	1.1403844	225	1	1.08889	0.986667;
	426	1	0	0	0	0	1	1.02020862	-28.2890076	63	1	1.04762	0.952381;
	427	1	-0.1	0.3	0	0	1	1.02769925	-9.64875058	63	1	1.06349	0.936508;
	428	1	7	-2	0	0	1	1.03069572	-45.7773617	63	1	1.06349	0.952381;
	429	1	56.7	7.2	0	0	1	1.02546976	-18.5918515	63	1	1.06349	0.968254;
	430	1	114	32.2	0	0	1	1.07410478	-25.8342451	225	1	1.09152	1.00444;
	431	1	13	0.2	0	0	1	1.0605157	-22.0149369	63	1	1.07937	0.920635;
	432	1	25	-2.5	0	0	1	1.03898046	-36.59575	63	1	1.07937	0.920635;
	433	1	3.2	3.9	0	0	1	1.05003831	-28.2791924	63	1	1.06645	0.952381;
	434	1	14	-3.6	0	0	1	1.02161889	-13.4065462	63	1	1.06349	0.936508;
	435	1	34.1	4.4	0	0	1	1.04383489	-26.8650922	90	1	1.07778	0.922222;
	436	1	26.1	-5.6	0	0	1	1.01125021	-15.4421907	63	1	1.06349	0.968254;
	437	1	2	-2	0	0	1	1.05586131	-14.8816244	63	1	1.09524	0.904762;
	438	1	11.9	-2	0	0	1	1.01694856	-28.4911781	63	1	1.04762	0.952381;
	439	1	12.8	1.6	0	0	1	1.03951408	-11.3127652	63	1	1.07937	0.952381;
	440	2	0	0	0	0	1	1.03183084	-27.7772129	63	1	1.07937	0.920635;
	441	1	3.2	2.2	0	0	1	1.03020751	-12.9806995	63	1	1.06349	0.936508;
	442	1	26.5	3.1	0	0	1	1.02616419	2.32648996	63	1	1.07937	0.952381;
	443	1	14.4	3.9	0	0	1	1.07237521	-20.0452692	90	1	1.11111	0.955556;
	444	1	0	0	0	0	1	1.07638734	-20.8283444	90	1	1.11111	0.955556;
	445	1	29.7	6.4	0	0	1	1.08341989	-21.3075539	90	1	1.11111	0.955556;
	446	1	0	0	0	0	1	1.03550331	-16.1566576	225	1	1.08889	0.924444;
	447	2	-0	2.9	0	0	1	0.999	-9.59863343	63	1	1.06349	0.968254;
	448	1	0	0	0	0	1	1.02128193	1.51286727	63	1	1.07937	0.952381;
	449	1	0	0	0	0	1	1.08632782	4.8647667	225	1	1.09494	0.986667;
	450	1	0	0	0	0	1	1.08999516	6.01594081	380	1	1.10526	1.03947;
	451	1	0.7	0	0	0	1	1.01142533	-23.7550172	63	1	1.07937	0.920635;
	452	1	0	0	0	30	1	1.05371246	-48.6690962	63	1	1.06349	0.952381;
	453	1	0	0	0	0	1	1.066886	-43.8097404	225	1	1.08444	1.00444;
	454	1	25	2.9	0	0	1	1.03883298	-26.4118221	63	1	1.07937	0.920635;
	455	1	10	1.1	0	0	1	1.05799408	-19.8340403	90	1	1.1	0.944444;