function mpc = case6470rte_res
%CASE6470RTE_RES

%% MATPOWER Case Format : Version 2
mpc.version = '2';

%%-----  Power Flow Data  -----%%
%% system MVA base
mpc.baseMVA = 100;

%% bus data
%    bus_i    type    Pd    Qd    Gs    Bs    area    Vm    Va    baseKV    zone    Vmax    Vmin
mpc.bus = [
    1    1    0    0    0    0    1    0.976135324    -12.9875828    45    1    1    0.888889;
    2    1    0    0    0    0    1    1.02642798    -12.9209735    63    1    1.06349    0.936508;
    3    1    12.5    -0.7    0    0    1    1.00503431    -13.9159361    63    1    1.07937    0.952381;
    4    1    44.7    -0.9    0    0    1    1.04420421    -12.9910682    90    1    1.08889    0.933333;
    5    1    12    0.1    0    0    1    1.01635585    -44.9201226    63    1    1.06349    0.952381;
    6    1    13    4.3    0    0    1    1.03382846    -21.1543304    63    1    1.07937    0.920635;
    7    1    1.2    0.8    0    0    1    1.04376781    -23.4100848    63    1    1.07937    0.920635;
    8    1    25.8    4.9    0    0    1    1.0613716    -9.10418767    225    1    1.08889    0.888889;
    9    1    12.9    0    0    0    1    1.04218481    -19.6871489    63    1    1.06349    0.936508;
    10    1    0    0    0    0    1    1.03392009    -13.0549496    90    1    1.07778    0.922222;
    11    1    28.8    1.1    0    0    1    1.03391987    -13.0549471    90    1    1.07778    0.922222;
    12    1    0    0    0    0    1    1.01220506    1.48219297    63    1    1.07937    0.952381;
    13    1    0    0    0    0    1    1.05892226    -5.03813018    380    1    1.10263    1.05526;
    14    1    51.5    1.9    0    0    1    1.06276651    -23.9128872    90    1    1.07778    0.977778;
    15    1    0    0    0    0    1    1.00803207    -27.2598438    63    1    1.07937    0.920635;
    16    1    13.8    4.1    0    0    1    1.02765775    -30.1772125    63    1    1.07937    0.920635;
    17    1    13.1    0.2    0    0    1    1.04678283    -29.17573    90    1    1.06667    0.977778;
    18    1    0    0    0    0    1    0.943683132    -6.2155084    45    1    1    0.888889;
    19    1    1    0    0    0    1    1.01840923    -21.4740652    63    1    1.06349    0.936508;
    20    1    0.9    -21.5    0    0    1    0.944675604    -6.24536997    45    1    1    0.888889;
    21    1    8.3    -3.3    0    0    1    1.04078363    -20.2816636    90    1    1.06667    0.977778;
    22    1    18    1.1    0    0    1    1.01396601    -11.090622    63    1    1.07937    0.952381;
    23    1    19.2    3.4    0    0    1    1.01094638    -10.1341522    63    1    1.06349    0.936508;
    24    1    16.1    -1.6    0    0    1    1.04095062    -12.3146476    90    1    1.11111    0.955556;
    25    1    59.9    -3.2    0    0    1    1.07238186    -8.4163516    90    1    1.1    0.944444;
    26    1    35.1    8.1    0    0    1    1.02301673    -21.9622899    90    1    1.06667    0.977778;
    27    1    0    0    0    0    1    1.06710622    -17.5930893    225    1    1.08444    1.00444;
    28    1    0.7    0.2    0    0    1    1.02281399    -19.0802778    63    1    1.07937    0.952381;
    29    1    60.1    2.7    0    0    1    1.00764281    -24.8514804    63    1    1.06349    0.968254;
    30    1    33.5    -0.9    0    0    1    1.03465163    -13.166494    90    1    1.08889    0.933333;
    31    1    0    0    0    0    1    1.02725644    -9.76750734    63    1    1.06349    0.936508;
    32    1    0    0    0    0    1    1.03648763    -4.81881747    150    1    1.10667    0.9;
    33    1    0    0    0    0    1    1.05453302    -7.48985086    225    1    1.08889    0.933333;
    34    1    0    0    0    0    1    1.05382679    -6.60072449    225    1    1.08889    0.933333;
    35    1    0    0    0    0    1    1.07407432    -6.15227525    380    1    1.10526    1.03947;
    36    1    0    0    0    0    1    1.07981194    -5.32056114    380    1    1.10526    1.03947;
    37    1    3.2    4.3    0    0    1    1.00780047    -25.5951085    63    1    1.07937    0.920635;
    38    1    6    -2    0    0    1    1.05045128    -12.5575786    63    1    1.09524    0.936508;
    39    1    41    -3.3    0    0    1    1.03860535    -32.8187795    90    1    1.07778    0.977778;
    40    1    32.6    0.5    0    0    1    1.05927183    -22.0753255    90    1    1.07778    0.977778;
    41    1    0    0    0    0    1    1.07994117    -18.1068338    225    1    1.08889    1.00444;
    42    1    0    0    0    0    1    1.12051301    5.62327658    63    1    1.13259    0.952381;
    43    1    3.6    2    0    0    1    1.04594618    -18.1300683    90    1    1.07778    0.977778;
    44    1    13    -0.7    0    0    1    1.02400676    -45.311438    63    1    1.06349    0.952381;
    45    1    3.9    1.7    0    0    1    1.00835368    -29.0244792    90    1    1.06667    0.977778;
    46    1    0    0    0    0    1    1.0124352    -16.8880048    63    1    1.06349    0.936508;
    47    2    0    0    0    0    1    1.012    -14.645547    63    1    1.06349    0.936508;
    48    1    36.5    3.4    0    0    1    1.0340232    -13.0537888    90    1    1.07778    0.922222;
    49    1    8.8    -1.7    0    0    1    1.0182624    -16.2518964    63    1    1.06349    0.936508;
    50    1    0    0    0    0    1    1.06347616    -15.8316089    63    1    1.07012    0.936508;
    51    1    0    0    0    0    1    1.05402053    -11.3433403    225    1    1.08889    0.933333;
    52    1    5    2.4    0    0    1    1.03592727    -30.7564752    90    1    1.06667    0.977778;
    53    1    2.5    -0.5    0    0    1    1.01729743    -17.5346224    63    1    1.04762    0.952381;
    54    1    -0.4    -0    0    0    1    1.03781665    -15.7996776    90    1    1.06667    0.977778;
    55    1    37.6    6.7    0    0    1    1.06961296    -18.9088133    225    1    1.08889    1.00444;
    56    1    52.1    13.5    0    0    1    1.07717062    -15.4484539    225    1    1.08889    1.00444;
    57    2    0    0    0    0    1    1.051    -23.8079898    63    1    1.07937    0.920635;
    58    1    130.6    30.1    0    0    1    1.06941541    -18.9257558    225    1    1.08889    1.00444;
    59    1    5.1    1.3    0    0    1    1.01246437    -11.9369768    63    1    1.07937    0.952381;
    60    1    0    0    0    0    1    1.0263095    -5.71730786    63    1    1.07937    0.952381;
    61    1    39.5    9.7    0    0    1    1.03149099    -8.2747102    63    1    1.07937    0.952381;
    62    1    0    0    0    0    1    1.01212851    -6.02686044    63    1    1.07937    0.952381;
    63    1    15.8    2    0    0    1    1.01100283    1.58082257    63    1    1.07937    0.952381;
    64    1    62.4    1    0    0    1    1.07394792    -6.80749559    225    1    1.08889    0.888889;
    65    1    11    2.8    0    0    1    1.04323713    -8.82732874    63    1    1.07937    0.952381;
    66    1    13.2    -7.9    0    0    1    1.02766847    -25.7167037    63    1    1.06349    0.936508;
    67    1    0    0    0    0    1    1.04382543    -19.3518137    63    1    1.07937    0.920635;
    68    1    48.1    -0.1    0    0    1    1.01281039    -16.3773637    63    1    1.06349    0.936508;
    69    1    19.3    -2.7    0    0    1    1.04103404    -49.391297    63    1    1.06349    0.952381;
    70    1    10.6    2.7    0    0    1    1.0149275    2.13356597    63    1    1.07937    0.952381;
    71    1    62.4    14.9    0    0    1    1.0270316    -19.7164845    63    1    1.04762    0.952381;
    72    1    0    0    0    0    1    1.08833148    -12.1242799    225    1    1.09027    1.00444;
    73    1    0    0    0    0    1    1.08830871    -12.1248825    225    1    1.09025    1.00444;
    74    1    50.4    -9.9    0    0    1    1.07421562    -6.68583421    225    1    1.08889    0.888889;
    75    1    22.3    1.8    0    0    1    1.05912761    -15.2222174    90    1    1.0673    0.977778;
    76    1    2.6    -0.4    0    0    1    1.07654403    4.81680521    225    1    1.08923    0.986667;
    77    1    36.8    -0.4    0    0    1    1.0172173    -16.1381229    63    1    1.06349    0.936508;
    78    1    0    0    0    0    1    1.01713501    -24.7894163    63    1    1.07937    0.920635;
    79    1    0    0    0    0    1    1.0233287    -15.8475159    63    1    1.04762    0.952381;
    80    1    32.3    7.3    0    0    1    1.07788234    -15.7071334    225    1    1.08889    1.00444;
    81    1    36.3    9.9    0    0    1    1.07789352    -15.7072508    225    1    1.08889    1.00444;
    82    1    11.7    1.6    0    0    1    1.01680664    -17.7494038    63    1    1.06349    0.936508;
    83    1    77.5    26.4    0    0    1    1.06117126    -18.1152106    225    1    1.08889    1.00444;
    84    1    -1.6    -1.2    0    0    1    1.01460966    -12.8501531    63    1    1.06349    0.936508;
    85    1    2.1    -2.1    0    0    1    1.03363532    -18.6193497    63    1    1.06349    0.936508;
    86    1    48.9    3.6    0    0    1    1.02064907    -38.5971036    90    1    1.06667    0.977778;
    87    1    0    0    0    0    1    1.01876449    1.31946858    63    1    1.07937    0.952381;
    88    1    13.5    -0.1    0    0    1    1.01592598    -21.6906442    63    1    1.06349    0.936508;
    89    1    25.4    0.8    0    0    1    1.0379702    -20.8635895    90    1    1.07778    0.977778;
    90    1    0.4    -1.4    0    0    1    0.942248777    -7.00258184    45    1    1    0.888889;
    91    1    1    0    0    0    1    0.943074695    -6.29975855    45    1    1    0.888889;
    92    1    28.6    3.2    0    0    1    1.00978634    -20.3689784    63    1    1.06349    0.968254;
    93    1    2.1    -2.5    0    0    1    0.958656559    -8.71223838    45    1    1    0.888889;
    94    1    17.5    -4.3    0    0    1    1.04379161    -19.716726    90    1    1.06667    0.977778;
    95    1    46.5    7.6    0    0    1    1.03122111    -30.4790399    90    1    1.06667    0.977778;
    96    1    1.5    -0.7    0    0    1    1.0378887    -11.0738479    63    1    1.06349    0.936508;
    97    1    56.4    0.9    0    0    1    1.06437655    -25.7371332    63    1    1.07937    0.920635;
    98    1    7.4    -1.3    0    0    1    1.03837048    -15.4092444    63    1    1.07937    0.952381;
    99    1    26.9    3.1    0    0    1    1.0396916    -7.84208874    63    1    1.07937    0.952381;
    100    1    53.3    8.6    0    0    1    1.00974158    -16.7689169    63    1    1.06349    0.936508;
    101    1    17.7    0.5    0    0    1    1.00684709    -13.2698302    63    1    1.06349    0.936508;
    102    2    0    0    0    0    1    1.026    -20.4613464    63    1    1.07937    0.952381;
    103    1    18    -1.1    0    0    1    1.02700007    -6.46012852    63    1    1.07937    0.952381;
    104    1    0    0    0    0    1    1.06764506    -3.65534652    225    1    1.08889    0.986667;
    105    1    35.5    1    0    0    1    1.05574625    -6.18941936    225    1    1.08889    0.888889;
    106    1    49.8    7.5    0    0    1    1.0549998    -10.3075924    90    1    1.1    0.944444;
    107    1    77.6    8.1    0    0    1    1.053443    -27.897656    225    1    1.08444    1.00889;
    108    1    12.6    -0.4    0    0    1    1.060898    -15.8435372    90    1    1.07778    0.977778;
    109    1    68.7    10.9    0    0    1    1.03797037    -14.4462437    63    1    1.06349    0.936508;
    110    1    0    0    0    0    1    1.02483774    -10.3343884    225    1    1.08889    0.933333;
    111    1    36.5    -7.9    0    0    1    1.00464662    -23.2259907    63    1    1.06349    0.968254;
    112    1    0    0    0    0    1    1.03104171    -19.4719416    63    1    1.04762    0.952381;
    113    1    0    0    0    0    1    1.07137238    -16.7036846    225    1    1.08889    1.00444;
    114    1    10.8    -0    0    0    1    1.04131926    -14.5108006    63    1    1.06349    0.936508;
    115    1    0    0    0    0    1    1.05906628    -5.03943931    380    1    1.10526    1.05263;
    116    1    0    0    0    0    1    1.05893143    -5.03821356    380    1    1.10526    1.05263;
    117    1    15.4    -1    0    0    1    1.01177141    -18.4961346    63    1    1.07937    0.952381;
    118    1    2    0.8    0    0    1    1.06140337    -14.9518796    90    1    1.06958    0.977778;
    119    1    37.2    5.3    0    0    1    1.02092428    -10.2081947    63    1    1.06349    0.936508;
    120    1    17    -3.2    0    0    1    1.01794151    -9.19026209    63    1    1.06349    0.936508;
    121    1    17.6    3.9    0    0    1    1.02798357    -24.4577659    63    1    1.07937    0.920635;
    122    2    0    0    0    0    1    1.026    -7.07348513    63    1    1.07937    0.952381;
    123    1    9    2.6    0    0    1    1.02435036    -7.2154606    63    1    1.07937    0.952381;
    124    1    8    -0.9    0    0    1    1.03707848    -25.0896541    90    1    1.06667    0.977778;
    125    1    10.5    -0.5    0    0    1    1.03689501    -9.82599706    63    1    1.07937    0.952381;
    126    1    0.3    -0.1    0    0    1    1.02949319    -19.3000839    63    1    1.06349    0.936508;
    127    1    7.8    1.5    0    0    1    1.03397146    -19.3319747    63    1    1.04762    0.952381;
    128    1    11.8    7.6    0    0    1    1.0246115    -12.416952    63    1    1.06349    0.968254;
    129    1    16.7    11.8    0    0    1    1.02325268    -10.6824542    63    1    1.06349    0.968254;
    130    1    0    0    0    0    1    1.04822424    -10.3241573    225    1    1.08444    1.00889;
    131    1    103    13.6    0    0    1    1.04604883    -19.0249756    225    1    1.08444    1.00889;
    132    2    11.5    0    0    0    1    1.065    -22.1161923    90    1    1.07778    0.922222;
    133    1    2.1    0.5    0    0    1    1.01877742    -19.1579143    63    1    1.04762    0.952381;
    134    1    83.5    23.6    0    0    1    1.06237022    -16.5655009    225    1    1.08889    1.00444;
    135    1    0    0    0    0    1    1.07000738    -18.7681008    225    1    1.08889    1.00444;
    136    1    21.9    -0.2    0    0    1    1.04427036    -29.9638941    90    1    1.07778    0.977778;
    137    2    9.6    -4.4    0    0    1    1.032    -17.2030449    63    1    1.06349    0.968254;
    138    1    0    0    0    0    1    1.03902058    -14.7611376    150    1    1.08    0.966667;
    139    1    15.7    2.2    0    0    1    1.05095521    -19.5548088    63    1    1.07937    0.920635;
    140    1    0    0    0    80    1    1.08235205    -16.4454118    225    1    1.08889    1;
    141    1    0    0    0    0    1    1.08918012    -13.1851413    380    1    1.10526    1.05263;
    142    1    14.8    5.8    0    0    1    1.01633352    -11.5222095    63    1    1.07937    0.952381;
    143    1    0    0    0    0    1    1.06497063    -7.36488985    225    1    1.08889    0.986667;
    144    1    23.3    -10.3    0    0    1    1.04710595    -10.8038211    90    1    1.11111    0.955556;
    145    1    27.6    5.9    0    0    1    1.07498755    -6.54324976    225    1    1.08889    0.968889;
    146    1    0    0    0    0    1    1.08289199    -4.0172957    380    1    1.10526    1;
    147    1    29    5.5    0    0    1    1.03903893    -15.2633809    63    1    1.06349    0.936508;
    148    1    6.7    2.4    0    0    1    1.02578798    -13.80299    63    1    1.06349    0.936508;
    149    1    17.9    6.1    0    0    1    1.04300696    -30.1856019    90    1    1.06667    0.977778;
    150    1    44.5    6.4    0    0    1    1.02466218    -10.2215429    63    1    1.06349    0.936508;
    151    1    0    0    0    0    1    0.988179973    -26.9166464    63    1    1.06349    0.968254;
    152    1    38.3    8.8    0    7.7    1    0.988026119    -25.6451835    63    1    1.06349    0.968254;
    153    1    23.2    -2.6    0    0    1    1.03360056    -13.5171248    63    1    1.06349    0.936508;
    154    1    0    0    0    0    1    1.06485517    -9.83648165    225    1    1.08889    0.933333;
    155    2    0    0    0    0    1    0.973059153    -24.3913736    63    1    1.07937    0.920635;
    156    1    0    0    0    0    1    0.988140945    -26.919601    63    1    1.06349    0.968254;
    157    1    0.3    3.1    0    0    1    0.898621794    -8.79796023    45    1    1    0.888889;
    158    2    0    0    0    0    1    0.947    -10.3049681    45    1    1    0.888889;
    159    1    0    0    0    0    1    1.00924767    -12.5239729    63    1    1.06349    0.936508;
    160    1    35.2    5.6    0    0    1    1.06355816    -4.61184729    225    1    1.08889    0.888889;
    161    1    38.2    8.7    0    0    1    1.06341169    -4.61790595    225    1    1.08889    0.888889;
    162    1    0.7    -1.4    0    0    1    1.0252651    -18.2491079    90    1    1.06667    0.977778;
    163    1    0    0    0    0    1    1.02136691    -6.21932703    63    1    1.07937    0.952381;
    164    1    0    0    0    0    1    1.02136691    -6.21932703    63    1    1.07937    0.952381;
    165    1    16.7    9.2    0    0    1    1.0695865    -25.1598433    20    1    1.15    0.8;
    166    1    10.1    2.4    0    0    1    1.04218915    -29.5659849    90    1    1.06667    0.977778;
    167    1    13.6    0.6    0    0    1    1.03463883    -29.8826206    90    1    1.06667    0.977778;
    168    1    0    0    0    0    1    1.06967075    -25.1532157    225    1    1.08444    1.00444;
    169    1    10.8    -1    0    0    1    1.02635835    -27.5078959    90    1    1.06667    0.977778;
    170    1    70.4    11.6    0    0    1    1.04989446    -21.2501818    90    1    1.07778    0.977778;
    171    1    26.5    -0.4    0    0    1    1.04571799    -23.9166797    90    1    1.07778    0.977778;
    172    1    0    0    0    0    1    1.06465853    -19.8842679    225    1    1.08889    1.00444;
    173    1    27.7    8.5    0    0    1    1.06990619    -6.72843811    90    1    1.08889    0.933333;
    174    1    47.4    4.6    0    0    1    1.06578124    -11.2678236    90    1    1.11111    0.955556;
    175    1    0    0    0    0    1    1.00313316    -22.9951643    63    1    1.07937    0.920635;
    176    1    0    0    0    0    1    1.01288103    -20.6961546    63    1    1.07937    0.920635;
    177    2    0    0    0    0    1    1.07314468    -17.8663171    150    1    1.1    0.9;
    178    1    0    0    0    0    1    1.08307249    -16.2672437    225    1    1.08889    1.00444;
    179    1    0    0    0    0    1    1.08307271    -16.2672449    225    1    1.08889    1.00444;
    180    1    0    0    0    -32    1    1.00374216    -19.4911475    20    1    1.15    0.8;
    181    1    0    0    0    -32    1    1.02635301    -19.4431418    20    1    1.15    0.8;
    182    1    0    0    0    0    1    1.03407596    -19.3248152    63    1    1.04762    0.952381;
    183    1    0    0    0    0    1    1.08307119    -16.2672367    225    1    1.08889    1.00444;
    184    1    12.9    -4.6    0    0    1    1.04803579    -26.3020499    63    1    1.07937    0.920635;
    185    1    16    3.1    0    0    1    1.03138096    -10.6424227    63    1    1.06349    0.936508;
    186    1    4.8    -0.4    0    0    1    1.01592703    -15.4060985    63    1    1.07937    0.952381;
    187    1    5    1.4    0    0    1    1.06702479    -18.5851056    90    1    1.07778    0.977778;
    188    1    28.7    4    0    0    1    1.00764359    -12.3590809    63    1    1.07937    0.952381;
    189    1    1.1    0.3    0    0    1    1.02544484    -17.5560211    90    1    1.06667    0.977778;
    190    2    0    0    0    0    1    1.02526044    -24.3091977    63    1    1.07937    0.920635;
    191    1    16.2    1.6    0    0    1    1.02786229    -23.807739    63    1    1.07937    0.920635;
    192    2    0    0    0    0    1    0.948167611    -8.50139283    45    1    1    0.888889;
    193    1    13.8    -0.3    0    0    1    1.0286529    -27.5518547    90    1    1.06667    0.977778;
    194    1    7.4    -1.5    0    0    1    1.04988634    -24.3274679    63    1    1.07937    0.920635;
    195    1    7.9    4.8    0    0    1    1.07074605    -17.1607169    225    1    1.08889    1.00444;
    196    2    1    -0.3    0    0    1    1.037    -25.5224442    63    1    1.07937    0.920635;
    197    1    0    0    0    0    1    1.08972444    -16.6356842    63    1    1.09837    0.952381;
    198    1    0    0    0    0    1    1.08972592    -16.6357268    63    1    1.09837    0.952381;
    199    1    24.4    1.2    0    0    1    1.01120807    -29.4189005    63    1    1.07937    0.920635;
    200    1    9.3    -2.7    0    0    1    1.02943997    -25.1549496    63    1    1.07937    0.920635;
    201    1    12.8    1.9    0    0    1    1.031398    -35.5919883    90    1    1.06667    0.977778;
    202    1    0    0    0    0    1    1.07085025    -23.7607474    225    1    1.08889    1;
    203    1    73.3    24.6    0    0    1    1.05163856    -6.86875611    225    1    1.08889    0.888889;
    204    1    41.8    1.4    0    0    1    0.994858143    -29.3559445    63    1    1.06349    0.968254;
    205    1    17.5    2.5    0    0    1    1.06135965    -3.60203691    90    1    1.1    0.944444;
    206    1    0    0    0    0    1    1.07368512    -0.364511854    225    1    1.08889    0.968889;
    207    1    0    0    0    0    1    1.08646264    3.1246028    380    1    1.10526    1;
    208    1    50.1    6.8    0    0    1    1.00551985    -27.1509885    63    1    1.06349    0.968254;
    209    1    32.9    4.1    0    0    1    0.996089143    -13.5997669    63    1    1.06349    0.968254;
    210    1    14.4    -1.6    0    0    1    1.04473461    -16.5311933    90    1    1.07778    0.977778;
    211    1    2.9    0.1    0    0    1    1.02030814    -21.6228302    63    1    1.06349    0.968254;
    212    1    40.8    5.5    0    0    1    0.999185308    -18.5640582    63    1    1.06349    0.968254;
    213    1    31.8    12.2    0    0    1    0.999137558    -18.4275521    63    1    1.06349    0.968254;
    214    1    0    0    0    0    1    1.04375791    -18.3612895    225    1    1.08444    1.00889;
    215    1    0    0    0    0    1    1.04366982    -18.349058    225    1    1.08444    1.00889;
    216    1    37.5    3.1    0    30.4    1    1.04835314    -26.1968158    90    1    1.07778    0.977778;
    217    1    0    0    0    0    1    1.06769263    -22.8437925    225    1    1.08889    1.00444;
    218    1    20.7    -2.4    0    0    1    1.00652686    -12.1863999    63    1    1.06349    0.952381;
    219    1    25    3.4    0    0    1    1.01424905    -26.0690276    90    1    1.06667    0.977778;
    220    1    1.6    -0.1    0    0    1    1.0377039    -15.8100108    90    1    1.06667    0.977778;
    221    1    10.4    -3.7    0    0    1    1.03667419    -26.4392376    90    1    1.06667    0.977778;
    222    1    11    1.5    0    0    1    1.0189382    1.75243741    63    1    1.07937    0.952381;
    223    1    14.3    -8.5    0    0    1    1.03189675    -19.4698253    63    1    1.06349    0.936508;
    224    1    0    0    0    0    1    1.0837059    -16.6198988    225    1    1.08902    0.933333;
    225    1    40.8    2    0    0    1    1.01333388    -25.7465071    63    1    1.07937    0.920635;
    226    2    0    0    0    0    1    1.07309576    -17.865345    150    1    1.1    0.9;
    227    1    37.6    6    0    0    1    1.03995156    -19.6269899    225    1    1.08444    1.00889;
    228    1    38.6    44    0    0    1    1.03933457    -19.6215347    225    1    1.08444    1.00889;
    229    1    4    0.2    0    0    1    1.02467634    -48.7927179    63    1    1.06349    0.952381;
    230    1    9.9    -2    0    0    1    1.02225945    -49.6938444    63    1    1.06349    0.952381;
    231    1    12.4    -5.7    0    0    1    1.06006546    -21.8844239    63    1    1.07937    0.920635;
    232    1    0    0    0    0    1    1.04175437    -19.4685636    225    1    1.08889    0.977778;
    233    1    6    -2.4    0    0    1    1.03514664    -26.2273696    90    1    1.06667    0.977778;
    234    1    6.4    1    0    0    1    1.03777098    -8.88849549    90    1    1.08889    0.933333;
    235    1    0    0    0    0    1    1.05029334    -7.36808051    20    1    1.15    0.8;
    236    1    23.9    8.5    0    0    1    1.05029334    -7.36808051    90    1    1.08889    0.933333;
    237    1    13.7    3.1    0    0    1    1.06350268    -4.00174062    225    1    1.08889    0.888889;
    238    1    26.6    1.5    0    0    1    1.04591592    -11.7829813    90    1    1.07778    0.922222;
    239    1    46.2    6.8    0    0    1    1.01635277    -12.8124636    63    1    1.06349    0.936508;
    240    1    21.4    -0.9    0    0    1    1.02086166    -21.4909905    90    1    1.06667    0.977778;
    241    1    52.1    3.6    0    0    1    1.01280647    -54.2161293    63    1    1.06349    0.952381;
    242    1    41.4    8.3    0    0    1    1.01720073    -24.7855344    63    1    1.07937    0.920635;
    243    1    45.4    4.4    0    0    1    1.02705199    -25.320751    90    1    1.07778    0.922222;
    244    1    45.5    4.8    0    0    1    1.00424673    -26.4494519    63    1    1.06349    0.968254;
    245    1    26.7    -3.4    0    0    1    1.01387389    -28.2287562    63    1    1.07937    0.920635;
    246    1    53.1    3.3    0    0    1    1.04504153    -23.4247926    90    1    1.07778    0.922222;
    247    1    12.8    -2.1    0    0    1    1.02807369    -25.6617925    63    1    1.07937    0.920635;
    248    2    12.3    4.9    0    0    1    0.998677677    -6.62206189    63    1    1.06349    0.936508;
    249    1    0    0    0    0    1    1.05286247    -5.18835641    225    1    1.08889    0.933333;
    250    1    28.9    9.4    0    0    1    1.0767631    -15.6548726    225    1    1.08889    1.00444;
    251    1    24    -5.3    0    0    1    1.03892461    -29.519014    63    1    1.07937    0.920635;
    252    1    23.5    -7.3    0    0    1    1.01034861    -18.9194341    63    1    1.07937    0.952381;
    253    1    6.1    -0    0    0    1    1.0247107    -28.5640417    90    1    1.06667    0.977778;
    254    1    9.5    -1.6    0    0    1    1.02658308    -18.167469    90    1    1.06667    0.977778;
    255    1    48.5    6.8    0    0    1    1.03818263    -15.7001655    63    1    1.07937    0.952381;
    256    1    16.9    0.4    0    0    1    1.0270399    -18.7177191    63    1    1.07937    0.952381;
    257    1    6.9    -1.4    0    0    1    1.01727477    -21.3279537    63    1    1.06349    0.936508;
    258    2    4.7    0    0    0    1    1.03168787    -23.9214135    63    1    1.07937    0.920635;
    259    1    0    0    0    0    1    1.07055072    -23.7962086    225    1    1.08889    1;
    260    2    -0    0    0    0    1    1.071    -18.4841091    90    1    1.07778    0.922222;
    261    1    29.7    1.1    0    0    1    1.04487598    -13.8754127    63    1    1.07937    0.952381;
    262    1    0    0    0    0    1    1.07518401    -11.9419329    225    1    1.08889    0.986667;
    263    2    0    0    0    0    1    0.998    -30.1268455    63    1    1.07937    0.920635;
    264    1    0    0    0    80    1    1.0706298    -4.32254792    225    1    1.08889    0.888889;
    265    1    0    0    0    0    1    1.05733959    -5.72907396    225    1    1.08889    0.888889;
    266    1    0    0    0    0    1    1.06916516    -1.20641817    380    1    1.10526    1.01316;
    267    1    0    0    0    0    1    1.01227764    -18.3807983    63    1    1.04762    0.952381;
    268    1    26.3    6.4    0    0    1    1.0740181    -15.5355938    225    1    1.08889    1.00444;
    269    1    57.3    10.1    0    0    1    1.07717983    -15.8926766    225    1    1.08889    1.00444;
    270    1    10.5    9.5    0    0    1    0.985293237    -20.2218565    63    1    1.07937    0.920635;
    271    1    22.7    2.7    0    0    1    0.996415935    -30.2719483    63    1    1.07937    0.920635;
    272    1    0    0    0    0    1    1.04387448    -11.9999333    225    1    1.08889    0.977778;
    273    1    0    0    0    0    1    1.04398538    -12.001198    225    1    1.08889    0.977778;
    274    1    6.7    7.7    0    0    1    1.02078341    -16.3600148    63    1    1.06349    0.968254;
    275    1    55.4    0.8    0    0    1    1.0415968    -12.88531    225    1    1.08444    1.00889;
    276    1    43.8    8.2    0    0    1    1.06468114    -11.0770801    90    1    1.1    0.944444;
    277    1    0    0    0    0    1    1.07474288    -21.353811    225    1    1.08444    1.00444;
    278    1    0    0    0    0    1    1.08484509    -15.6317376    380    1    1.10263    1.04211;
    279    1    1.8    4.2    0    0    1    1.03239756    -24.4170247    90    1    1.06667    0.977778;
    280    1    -1.5    4.3    0    0    1    1.07449623    -21.410479    225    1    1.08444    1.00444;
    281    1    10    -2.1    0    0    1    1.02169544    -23.0366961    63    1    1.06349    0.936508;
    282    1    48    11.3    0    0    1    1.04952965    -27.6527908    90    1    1.07778    0.977778;
    283    1    12.8    0.9    0    0    1    1.01615319    -12.1625591    63    1    1.07937    0.952381;
    284    2    0    0    0    0    1    0.998678167    -6.62207344    63    1    1.06349    0.936508;
    285    1    10.8    0.2    0    0    1    1.03014004    -30.7289516    90    1    1.06667    0.977778;