function mpc = case2848rte_resqlim
%CASE2848RTE_RESQLIM

%% MATPOWER Case Format : Version 2
mpc.version = '2';

%%-----  Power Flow Data  -----%%
%% system MVA base
mpc.baseMVA = 100;

%% bus data
%    bus_i    type    Pd    Qd    Gs    Bs    area    Vm    Va    baseKV    zone    Vmax    Vmin
mpc.bus = [
    1    1    20.6    0    0    0    1    1.05484171    -6.19743472    63    1    1.06349    0.936508;
    2    1    20.9    17.2    0    0    1    1.02160581    -9.87233473    225    1    1.08889    0.888889;
    3    1    0    0    0    0    1    1.05656928    -2.90462163    380    1    1.10263    1;
    4    1    0    0    0    0    1    1.04425193    -12.4029646    63    1    1.07937    0.920635;
    5    1    0.4    0.1    0    0    1    0.939827282    -6.8089197    45    1    1    0.888889;
    6    1    -2.3    -20.6    0    0    1    0.940909416    -6.82414041    45    1    1    0.888889;
    7    1    110.5    -25.5    0    0    1    1.05060646    -2.64977313    225    1    1.08444    1;
    8    1    44.7    1.5    0    0    1    1.00666155    -12.293467    63    1    1.06349    0.968254;
    9    1    0    0    0    -21    1    1.04098654    -4.04461334    20    1    1.2    0.8;
    2966    1    0    0    0    -64    1    1.00563195    -7.4063235    20    1    1.2    0.8;
    10    1    0    0    0    0    1    1.05403819    -6.75364532    150    1    1.10667    0.9;
    11    1    31.7    -8.7    0    0    1    1.05577753    -7.00703453    225    1    1.08889    0.933333;
    2571    1    43.7    9.9    0    0    1    1.05331741    -6.74406212    225    1    1.08889    0.933333;
    12    1    0    0    0    0    1    1.06187868    -4.08652235    380    1    1.10526    1;
    13    1    0    0    0    0    1    1.0342061    -9.6059418    225    1    1.09067    1;
    14    1    -4.1    3.7    0    0    1    1.02426165    -9.20579812    63    1    1.06349    0.936508;
    15    1    9    -3.3    0    0    1    1.04704161    -8.22712545    63    1    1.06349    0.936508;
    16    1    120    6.3    0    0    1    1.06413342    -8.50198371    225    1    1.08889    0.933333;
    17    1    35    6.9    0    0    1    1.02936879    -12.2833314    225    1    1.08889    1;
    18    1    45    13.4    0    0    1    1.007585    -9.75330046    225    1    1.08962    1;
    19    1    0    0    0    0    1    1.06135049    -8.246157    63    1    1.08661    0.920635;
    20    1    77.3    29.1    0    0    1    1.02931339    -12.2937417    225    1    1.08889    1;
    21    1    48.4    4    0    0    1    1.02563029    -6.30212713    225    1    1.08889    0.888889;
    22    1    4.6    -11.4    0    0    1    1.10601375    -10.6892544    63    1    1.07249    0.936508;
    23    1    33.3    -5.7    0    0    1    1.03287003    -9.09335357    63    1    1.06349    0.936508;
    24    1    0    0    0    0    1    1.03910865    -6.52988167    225    1    1.08889    1;
    2573    1    0    0    0    0    1    1.03911573    -6.53252789    225    1    1.08889    1;
    25    1    18    5.6    0    0    1    1.02599153    -6.3393762    225    1    1.08889    0.888889;
    26    1    1    -8    0    0    1    1.06324475    -1.54330625    225    1    1.09649    0.986667;
    27    1    22    -5.6    0    0    1    1.05704195    -8.60588464    63    1    1.06349    0.936508;
    28    1    -2.1    -0.1    0    0    1    1.01993177    -10.8026721    225    1    1.08889    1;
    2574    1    39.1    10    0    0    1    1.01988781    -10.8059535    225    1    1.08889    1;
    29    1    7.1    -2.6    0    0    1    1.03874284    -8.23315509    63    1    1.06349    0.936508;
    30    1    3.5    -40    0    0    1    1.03259893    -10.508395    225    1    1.08889    1;
    31    1    7.7    -1.8    0    0    1    1.06155112    -6.23999119    63    1    1.07211    0.936508;
    32    1    12.1    2.1    0    0    1    1.04315027    -8.10928563    63    1    1.06349    0.936508;
    33    1    2.4    -0.4    0    0    1    0.939432775    -7.10586252    45    1    1    0.888889;
    34    1    -0    0    0    0    1    0.939888237    -6.80440334    45    1    1    0.888889;
    35    1    26    0.1    0    0    1    1.03228759    -12.9332855    63    1    1.06349    0.968254;
    36    1    0.7    -4.1    0    0    1    0.986888868    -9.57192295    45    1    1    0.888889;
    37    1    9.3    -5.3    0    0    1    1.05378282    -7.68657562    63    1    1.06349    0.936508;
    39    1    78.4    -4.8    0    0    1    1.05147689    -5.97562164    225    1    1.08934    0.986667;
    40    1    25.1    -3.3    0    0    1    1.03064447    -7.94997769    225    1    1.08889    0.888889;
    41    1    80.4    7.4    0    0    1    1.06385524    -20.0893011    225    1    1.08444    1;
    42    1    37.8    2.9    0    0    1    1.05062306    -6.21383735    63    1    1.0637    0.936508;
    43    1    0    0    0    0    1    1.05607567    -5.03949898    225    1    1.08889    0.933333;
    44    1    29    -10    0    0    1    1.0266735    -13.1821568    63    1    1.06349    0.968254;
    45    1    97.4    -3    0    0    1    1.02766861    -7.97482744    225    1    1.08889    1;
    46    1    0    0    0    0    1    1.05655479    -2.89525426    380    1    1.10526    1;
    2575    1    0    0    0    0    1    1.05656408    -2.89138111    380    1    1.10526    1;
    47    1    21.3    -2.6    0    0    1    1.03366775    -4.98224467    63    1    1.06606    0.936508;
    48    1    -0.3    0.8    0    0    1    1.0682321    -6.63388688    63    1    1.06735    0.936508;
    49    1    11.6    3.2    0    0    1    1.03045508    -5.9354188    63    1    1.06349    0.968254;
    2576    1    9.3    4.7    0    0    1    1.03032858    -6.68024374    63    1    1.06349    0.968254;
    50    1    0    0    0    0    1    1.05800703    -5.61078826    225    1    1.08444    1;
    51    1    66.6    0    0    0    1    1.04305582    -9.17387973    225    1    1.08444    1;
    52    1    0    0    0    0    1    1.02967741    -12.1512177    225    1    1.08889    1;
    2942    1    53.9    11.2    0    0    1    1.01738872    -11.9571425    225    1    1.08889    1;
    53    1    7.9    -4.7    0    0    1    1.03824553    -9.60599587    63    1    1.06349    0.968254;
    54    1    0    0    0    0    1    1.06250168    -8.69577778    150    1    1.08    0.966667;
    55    1    40.5    8.5    0    0    1    1.01763076    -22.3950443    225    1    1.09459    1;
    56    1    0    0    0    0    1    1.0282441    -20.1213663    380    1    1.10526    1;
    57    1    80.2    -7.7    0    0    1    1.05168992    -9.23398093    225    1    1.08889    0.986667;
    58    1    0    0    0    -64    1    1.02140378    -6.45467912    20    1    1.2    0.8;
    59    1    35.3    -9.2    0    0    1    1.02572665    -6.22052795    225    1    1.08889    0.968889;
    60    1    58.9    2.6    0    0    1    1.02924711    -4.99405838    380    1    1.10526    1;
    61    1    5.5    1.7    0    0    1    1.0496503    -7.60262161    63    1    1.06349    0.936508;
    62    1    0.6    0.7    0    0    1    0.996668517    -13.4938013    63    1    1.06349    0.968254;
    63    1    28.6    4.1    0    0    1    0.996877199    -13.4911733    63    1    1.06349    0.968254;
    2577    1    0    0    0    0    1    0.9968454    -14.762187    63    1    1.06349    0.968254;
    64    1    39.6    9.4    0    0    1    1.06737063    -5.68955034    225    1    1.08889    0.933333;
    65    1    0    0    0    0    1    0.99682755    -14.7656559    63    1    1.06349    0.968254;
    66    1    12.5    -6.5    0    0    1    0.971937947    -6.28635863    45    1    1    0.888889;
    2578    3    0    0    0    0    1    1    -6.26418643    45    1    1    0.888889;
    67    1    0.4    3.2    0    0    1    1.03100872    -7.57119989    225    1    1.08889    0.888889;
    2579    1    42.5    7.2    0    0    1    1.03059532    -7.66403888    225    1    1.08889    0.888889;
    68    1    4.2    -2.2    0    0    1    1.03364338    -15.9247263    20    1    1.2    0.8;
    69    1    139.3    4.7    0    0    1    1.03362879    -15.9227502    225    1    1.08685    1;
    70    1    83.7    -8.3    0    0    1    1.03497243    -11.6474227    225    1    1.08889    1;
    71    2    0    0    0    0    1    1.079    -9.40305859    150    1    1.10885    0.9;
    72    1    0    0    0    0    1    1.02513597    -10.6419731    225    1    1.08889    1;
    2580    1    0    0    0    0    1    1.02513575    -10.6419719    225    1    1.08889    1;
    74    1    0    0    0    -80    1    1.02513453    -10.641965    225    1    1.08889    1;
    75    1    15.2    5.4    0    0    1    1.03991396    -5.1075451    63    1    1.06349    0.936508;
    76    2    0    0    0    0    1    0.953    -5.45753572    45    1    1    0.888889;
    77    1    5.7    -1.3    0    0    1    1.06075012    -9.03186534    63    1    1.08481    0.920635;
    78    1    7.8    5.8    0    0    1    1.02665228    -8.30697072    225    1    1.08889    1;
    79    1    14    -4.6    0    0    1    1.0271548    -23.0221751    63    1    1.07937    0.920635;
    80    1    7.1    -2.3    0    0    1    1.05726098    -10.1154634    63    1    1.08744    0.920635;
    81    1    0    0    0    0    1    1.05351904    -11.7988852    225    1    1.08889    1;
    82    1    59.6    24    0    0    1    1.03021963    -8.13477872    225    1    1.08889    0.888889;
    83    1    27.8    -7.5    0    0    1    1.0169759    -17.56785    63    1    1.06349    0.967399;
    84    1    61.1    -4.5    0    0    1    1.00899344    -6.70165748    225    1    1.08889    0.968889;
    85    1    0    0    0    0    1    1.00582697    -4.64287426    380    1    1.10526    1;
    86    1    31.8    1    0    0    1    1.01719192    -15.4899421    63    1    1.06349    0.968254;
    87    1    22.8    -0.9    0    0    1    1.02090776    -7.73109515    63    1    1.06349    0.968254;
    88    1    2.1    0.8    0    0    1    1.01468922    -10.7037197    63    1    1.06349    0.968254;
    89    1    30.5    6.3    0    0    1    0.996547445    -8.79828819    63    1    1.06349    0.968254;
    2581    1    32    12.1    0    0    1    0.996513735    -8.72606965    63    1    1.06349    0.968254;
    90    1    0    0    0    0    1    1.04092792    -8.64665286    225    1    1.08444    1;
    2582    1    0    0    0    0    1    1.04104821    -8.64623002    225    1    1.08444    1;
    91    1    89.3    -15.7    0    0    1    1.03591516    -12.8243234    225    1    1.08889    1;
    92    1    6.4    -11.6    0    0    1    1.07764549    -4.18626207    225    1    1.09041    0.933333;
    93    1    0    0    0    0    1    1.078016    -9.50334012    150    1    1.10907    0.9;
    94    1    37.7    57.2    0    0    1    1.03375033    -7.4032003    225    1    1.08444    1;
    2583    1    33.4    -0.5    0    0    1    1.03470068    -7.40907189    225    1    1.08444    1;
    95    1    0    0    0    0    1    1.03564677    -7.73095858    225    1    1.08889    0.977778;
    96    1    9    0.8    0    0    1    1.04309047    -5.90020459    225    1    1.08889    0.888889;
    97    1    35.8    4.5    0    0    1    1.00247432    -14.3945682    63    1    1.06349    0.968254;
    98    1    16.5    -8.7    0    0    1    1.05016429    -7.11585789    225    1    1.08889    0.933333;
    99    1    28.6    5    0    0    1    1.0341214    -9.66280201    225    1    1.08889    1;
    2584    1    14.5    3.6    0    0    1    1.00688522    -9.91990915    225    1    1.08889    1;
    100    1    7.3    -5.1    0    0    1    1.05268113    -12.0926725    225    1    1.08889    1;
    101    1    6.4    2.5    0    0    1    1.04792145    -5.62228825    225    1    1.08889    0.986667;
    102    1    0    0    0    0    1    1.03544441    -7.43890849    225    1    1.08889    0.888889;
    2585    1    0    0    0    0    1    1.03251224    -7.54090377    225    1    1.08889    0.888889;
    103    1    0    0    0    0    1    1.03543334    -5.6951175    380    1    1.10526    1;
    104    1    45.6    7    0    0    1    1.0201264    -10.9654817    225    1    1.08889    1;
    2586    1    19.1    5.8    0    -80    1    1.02521881    -9.7615611    225    1    1.08889    1;
    105    1    10.1    -0.9    0    0    1    1.02292963    -11.5683483    63    1    1.07937    0.920635;
    106    1    0    0    0    0    1    1.05490116    -6.13683936    225    1    1.08889    0.977778;
    2587    1    0    0    0    0    1    1.05491683    -6.13707975    225    1    1.08889    0.977778;
    107    1    8.4    3.5    0    0    1    1.03362187    -9.16938459    63    1    1.06349    0.968254;
    108    1    39.7    -6.4    0    0    1    1.05361377    -6.67987539    225    1    1.08444    1;
    109    1    0    0    0    0    1    1.04508431    -5.51527922    225    1    1.08444    1;
    110    1    0    0    0    0    1    1.04247095    0.820382507    380    1    1.10263    1;
    111    1    62.2    -16.1    0    0    1    1.04495687    -5.57887131    225    1    1.08444    1;
    112    1    2.2    -1    0    0    1    1.00835086    -9.63579706    225    1    1.09035    1;
    2588    1    12.3    -2    0    0    1    1.0083239    -9.64237815    225    1    1.09035    1;
    113    1    5    -3.8    0    0    1    1.05835484    -2.79695569    225    1    1.08889    0.888889;
    114    1    30    0    0    0    1    1.04534661    -8.37925483    63    1    1.06349    0.936508;
    115    1    11.7    1.8    0    0    1    1.02990287    -7.3206876    225    1    1.08889    0.888889;
    116    1    51.9    15.9    0    0    1    1.00893635    -7.31547084    225    1    1.08889    0.888889;
    117    1    2.6    0.2    0    0    1    1.04057823    -7.6135884    63    1    1.06349    0.968254;
    118    1    38    3.1    0    0    1    1.01298033    -25.0370553    63    1    1.07937    0.920635;
    119    1    24    -7.3    0    0    1    1.02780989    -15.2144159    63    1    1.06349    0.968254;
    120    1    0    0    0    0    1    1.06385919    -6.14884763    63    1    1.06863    0.936508;
    121    1    8    2.5    0    0    1    1.03764976    -18.274006    63    1    1.06349    0.968254;
    2589    1    9.9    3.5    0    0    1    1.03800644    -18.2812329    63    1    1.06349    0.968254;
    122    1    77.1    -3.9    0    0    1    1.02577238    -7.80651723    225    1    1.08889    1;
    123    1    21.2    4.4    0    0    1    1.03924458    -13.6904185    63    1    1.07937    0.920635;
    124    1    0    -4.6    0    0    1    1.05977795    -10.0153111    63    1    1.08203    0.920635;
    125    1    0    0    0    0    1    1.04277538    -18.3535966    63    1    1.07937    0.920635;
    126    1    0    0    0    0    1    1.01501985    -12.662227    225    1    1.08889    1;
    127    1    0    0    0    0    1    1.05252813    -12.7044523    380    1    1.10526    1;
    128    1    17.1    1.5    0    0    1    1.05495373    -6.2713671    63    1    1.06349    0.936508;
    129    1    18.2    12.2    0    0    1    1.04029388    -7.36948988    63    1    1.06349    0.936508;
    130    1    -13.2    16.1    0    0    1    1.04460072    -12.9091325    63    1    1.07937    0.920635;
    131    1    0    0    0    0    1    1.05074919    -11.2049774    225    1    1.08889    1;
    132    1    81.2    18.3    0    0    1    1.04849126    -10.3740764    225    1    1.08889    1;
    133    2    9.6    3.3    0    0    1    1.028    -21.2091284    63    1    1.06538    0.968254;
    134    1    0    0    0    0    1    1.03556696    -15.2769526    150    1    1.08    0.966667;
    135    2    -8.9    -4.4    0    0    1    1.066    -10.7108239    63    1    1.07937    0.920635;
    136    1    -10.6    -2.1    0    0    1    1.03348906    -3.93241432    225    1    1.08889    0.986667;
    137    1    14.1    -3.7    0    0    1    1.01152485    -12.5992456    63    1    1.06349    0.968254;
    138    1    11.3    -2.7    0    0    1    1.07110607    -4.19950989    225    1    1.08444    1;
    139    1    9.4    -2.2    0    0    1    1.01649361    -20.6040874    63    1    1.06349    0.968254;
    140    1    0    0    0    0    1    1.02958029    -2.27096864    380    1    1.10526    1;
    2590    1    0    0    0    0    1    1.03059733    -2.59011435    380    1    1.10526    1;
    141    1    11.1    4.5    0    0    1    1.02804174    -7.84868922    225    1    1.08889    1;
    142    1    7.2    5.2    0    0    1    1.03528643    -10.3876255    225    1    1.08889    1;
    143    1    20.9    -1.3    0    0    1    1.0179813    -14.1145841    63    1    1.06349    0.968254;
    144    1    33.4    6.5    0    0    1    1.06443032    -11.3074797    150    1    1.1    0.9;
    145    1    61.8    -3.3    0    0    1    1.03191845    -14.1373699    225    1    1.08925    1;
    146    2    0    -0    0    0    1    1.02    -10.8246415    225    1    1.08889    1;
    147    1    0    0    0    0    1    1.05502088    -7.10080611    225    1    1.08889    0.933333;
    148    1    0    0    0    0    1    1.06178231    -4.064212    380    1    1.10526    1;
    2591    1    0    0    0    0    1    1.06181356    -4.05799987    380    1    1.10526    1;
    149    1    0    0    0    0    1    1.02965596    -12.2639814    225    1    1.08889    1;
    2592    1    61.8    10.2    0    0    1    1.01655434    -12.1388517    225    1    1.08889    1;
    150    1    0    0    0    0    1    1.01064886    -5.23616968    225    1    1.08889    0.986667;
    151    1    9.8    4.5    0    0    1    1.02948286    -12.2743471    225    1    1.08889    1;
    152    1    0    0    0    0    1    1.06593452    -3.4690966    20    1    1.2    0.8;
    153    1    88.2    -7.1    0    0    1    1.05775916    -3.06287844    225    1    1.08889    0.933333;
    154    1    0    0    0    0    1    1.05878057    -1.22827083    380    1    1.10526    1;
    155    1    23.8    -12.3    0    0    1    1.02651598    -6.19073221    225    1    1.08889    1;
    156    1    18.2    -0.6    0    0    1    1.07773696    -7.39025574    63    1    1.06503    0.936508;
    157    1    0.4    0.2    0    0    1    1.03810896    -9.23977786    63    1    1.06349    0.968254;
    158    1    18.7    -2.5    0    0    1    1.02978357    -14.8254498    63    1    1.07937    0.920635;
    159    1    19.2    -1    0    0    1    1.01730703    -16.1055157    63    1    1.06349    0.968254;
    160    1    4    0.2    0    0    1    1.05567316    -8.52554632    63    1    1.06349    0.936508;
    161    1    0    0    0    0    1    1.02319557    -14.7840734    63    1    1.15    0.8;
    162    1    2.8    3.9    0    0    1    1.03532266    -11.060918    225    1    1.09053    1;
    163    1    0    0    0    0    1    1.03596644    -23.6006245    63    1    1.06349    0.968254;
    164    1    68.7    -27.8    0    0    1    1.0431181    -15.1211347    225    1    1.09791    1;
    165    1    70.9    -7.8    0    0    1    1.03977624    -3.83040148    225    1    1.08889    0.986667;
    166    1    35.7    1.2    0    0    1    1.01417442    -10.7384115    63    1    1.06349    0.968254;
    167    1    66.9    15.7    0    0    1    1.03420421    -9.60063683    225    1    1.09067    1;
    168    1    10.2    -5.9    0    0    1    1.05977363    -8.04643453    63    1    1.06349    0.936508;
    169    1    22.5    -8.3    0    0    1    1.03607598    -10.8826654    63    1    1.06349    0.968254;
    170    1    3.1    1.2    0    0    1    1.04671776    -7.75674582    63    1    1.06822    0.936508;
    171    1    103.9    36.4    0    0    1    1.02798408    -8.32407943    225    1    1.08889    0.924444;
    172    2    -0    0    0    0    1    1.02792228    -7.28005803    63    1    1.06349    0.968254;
    173    1    46.9    -16.3    0    0    1    1.05676453    -0.708520031    225    1    1.09616    0.986667;
    174    1    0    0    0    0    1    1.05916838    -0.131684994    380    1    1.10526    1;
    175    1    83.4    -19.9    0    0    1    1.05105045    -13.5247006    225    1    1.08444    1;
    176    1    0    0    0    -64    1    1.01162524    -19.2435014    20    1    1.2    0.8;
    177    1    0    0    0    0    1    0.975079582    -20.594475    63    1    1.06349    0.960855;
    178    1    0    0    0    0    1    1.06211453    -18.9411468    225    1    1.08444    1;
    179    1    0    0    0    0    1    1.05830753    -16.5190021    380    1    1.10263    1;
    180    1    -0.3    -5.1    0    0    1    1.05840427    -3.06932907    225    1    1.08889    0.933333;
    181    1    -0.2    -8.9    0    0    1    0.967998407    -6.22607737    45    1    1.01652    0.888889;
    182    1    0    0    0    0    1    1.04999535    -7.57213714    63    1    1.06349    0.936508;
    183    1    0    0    0    0    1    1.05602416    -5.28360714    225    1    1.08889    0.933333;
    184    1    0    0    0    0    1    1.05795659    -5.56519383    225    1    1.08889    0.977778;
    185    1    12.8    -5.2    0    0    1    1.05508199    -8.18162674    63    1    1.06349    0.936508;
    186    1    -3.5    -3.5    0    0    1    1.0324239    0.417082838    225    1    1.09862    1;
    187    1    0    0    0    0    1    1.02772517    0.378634873    380    1    1.10526    1;
    2593    1    0    0    0    0    1    1.02775589    0.389749622    380    1    1.10526    1;
    2594    1    0    0    0    0    1    1.02768398    0.418908686    380    1    1.10526    1;
    2595    1    0    0    0    0    1    1.02772785    0.405745612    380    1    1.10526    1;
    188    1    0    0    0    0    1    1.05678665    -0.707414352    225    1    1.09683    0.986667;
    2596    1    0    0    0    0    1    1.05667377    -0.62903816    225    1    1.09683    0.986667;
    189    1    0    0    0    0    1    1.05905209    -0.0618797153    380    1    1.10526    1;
    190    1    8.4    -10.3    0    0    1    1.02957582    -6.40414297    225    1    1.08889    0.968889;
    191    1    34.1    -3.5    0    0    1    1.01354701    -24.2879415    63    1    1.06349    0.968254;
    192    1    29.2    4.5    0    0    1    1.06377339    -20.040834    225    1    1.08444    1;
    193    1    11.4    4.2    0    0    1    1.04151986    -2.27068102    380    1    1.10526    1;
    194    1    0    0    0    0    1    1.05064199    -7.35767867    63    1    1.06349    0.936508;
    2597    1    0    0    0    0    1    1.04403414    -7.1699454    63    1    1.06349    0.936508;
    195    1    0    0    0    0    1    1.06529666    -4.61482355    225    1    1.08889    0.933333;
    196    1    0    0    0    0    1    1.05720576    -1.8963162    380    1    1.10526    1;
    197    1    3.7    13.7    0    0    1    1.03884109    -6.1603421    63    1    1.06349    0.968254;
    198    1    0    0    0    0    1    1.06518129    -3.31351995    225    1    1.08444    1;
    199    1    152.4    6.2    0    0    1    1.04959917    -2.44566308    225    1    1.08444    1;
    200    1    29.9    3    0    0    1    1.06788622    -4.98188783    225    1    1.08889    0.933333;
    2598    1    35    3.5    0    0    1    1.06787338    -4.98723342    225    1    1.08889    0.933333;
    201    1    24.1    -16.4    0    0    1    1.03536078    -11.0599184    225    1    1.09027    1;
    202    1    0    0    0    0    1    1.08168087    -4.95434294    225    1    1.09529    1;
    2599    1    0    0    0    0    1    1.08167888    -4.95432102    225    1    1.09529    1;
    203    1    36.8    5.3    0    0    1    1.02566688    -7.48159927    225    1    1.08889    1;
    204    1    20.4    -4.2    0    0    1    1.03639259    -8.45154585    225    1    1.08889    1;
    205    1    0    0    0    0    1    1.02242015    -7.47803931    63    1    1.06349    0.968254;
    206    1    0    0    0    0    1    1.06758936    -4.35382135    225    1    1.08444    1;
    207    1    6.2    2.7    0    0    1    1.02512902    -13.9177205    63    1    1.06349    0.968254;
    208    1    9.6    1    0    0    1    1.03648254    -19.5139604    63    1    1.07937    0.920635;
    209    1    25.7    -12.7    0    0    1    1.05663832    -8.61505399    63    1    1.06349    0.936508;
    210    1    0    0    0    0    1    1.0271548    -23.0221751    63    1    1.07937    0.920635;
    211    1    26.5    -2.3    0    0    1    1.02606973    -8.36147352    225    1    1.08889    1;
    212    1    0    0    0    0    1    1.05793111    -12.3618071    225    1    1.08444    1;
    213    1    0    0    0    0    1    1.05788786    -12.3684341    225    1    1.08444    1;
    2600    1    0    0    0    0    1    1.05697874    -7.37307643    225    1    1.08444    1;
    214    1    0    0    0    0    1    1.05548525    -5.94142135    380    1    1.10263    1;
    215    1    1.5    -0    0    0    1    1.05201397    -6.82614149    63    1    1.06418    0.936508;
    216    1    101.1    -8.8    0    0    1    1.00928427    -7.30503253    225    1    1.08889    0.888889;
    217    1    0    0    0    0    1    1.03241155    0.416959827    225    1    1.09861    1;
    218    1    0    0    0    0    1    1.02781626    0.336767158    380    1    1.10526    1;
    219    1    17.3    3.3    0    0    1    1.0444489    -6.86169781    225    1    1.08889    0.986667;
    220    1    0    0    0    0    1    1.03366929    -20.880405    63    1    1.06349    0.968254;
    221    1    21.6    -6.3    0    0    1    1.02732188    -10.9963627    63    1    1.07937    0.920635;
    222    1    0    0    0    0    1    1.05879635    -10.2858921    225    1    1.08889    1;
    223    1    0    0    0    0    1    1.04010182    -16.800534    225    1    1.08444    1;
    2601    1    0    0    0    0    1    1.04009453    -16.8003371    225    1    1.08444    1;
    2602    1    0    0    0    0    1    1.04009453    -16.8003371    225    1    1.08444    1;
    224    1    60.6    -5.7    0    0    1    1.0400935    -16.8003094    225    1    1.08444    1;
    225    2    0    0    0    0    1    1.05    -2.93717221    20    1    1.2    0.8;
    226    1    0    0    0    0    1    1.05368513    -4.83988983    225    1    1.08889    0.933333;
    227    1    6.2    7.3    0    0    1    1.04277675    -6.90719178    225    1    1.08889    0.986667;
    228    1    0    0    0    0    1    1.07970927    -5.43380277    20    1    1.2    0.8;
    229    1    0    0    0    0    1    1.08109176    -5.16167806    225    1    1.0904    1;
    230    1    0    0    0    0    1    1.07760807    -3.7689251    380    1    1.10526    1;
    231    1    0    0    0    0    1    1.04426218    -8.24162887    225    1    1.08889    0.933333;
    232    1    11.4    0.6    0    0    1    1.00913678    -9.85297885    63    1    1.06349    0.968254;
    2603    1    9    0.1    0    0    1    1.03417115    -10.1267556    63    1    1.06349    0.968254;
    233    1    0    0    0    0    1    1.0611546    -8.83269285    150    1    1.08    0.966667;
    234    1    1.2    -0.9    0    0    1    1.02054316    -10.6650397    225    1    1.08889    1;
    2604    1    37.3    -0.1    0    0    1    1.02032232    -10.7198947    225    1    1.08889    1;
    235    2    0    0    0    0    1    1.053    -6.26217548    63    1    1.06349    0.936508;
    236    1    26.3    1.1    0    0    1    1.02181224    -10.8126038    63    1    1.06349    0.968254;
    237    1    13.4    -0.3    0    0    1    1.07496529    -7.39937402    63    1    1.06349    0.936508;
    238    1    34.2    0.7    0    0    1    1.00926208    -6.63963063    225    1    1.08889    0.888889;
    240    2    0    0    0    0    1    1.075    -3.96140227    380    1    1.10694    1;
    241    1    9.9    3.2    0    0    1    1.02936172    -4.3725653    63    1    1.06721    0.936508;
    242    1    29.3    2    0    0    1    1.04012049    -11.1930189    63    1    1.06349    0.968254;
    243    1    94.1    -4.7    0    0    1    1.02607758    -8.33692204    225    1    1.08889    1;
    244    1    31.6    4.2    0    0    1    1.02668762    -17.5871028    63    1    1.06349    0.968254;
    245    1    20.3    9.9    0    0    1    1.03516717    -4.17696464    225    1    1.08889    0.986667;
    246    1    0    0    0    0    1    1.05095548    -0.0888392101    380    1    1.10526    1;
    2609    1    0    0    0    0    1    1.05493352    -0.903534216    380    1    1.10526    1;
    2610    1    0    0    0    0    1    1.05095954    -0.0955063754    380    1    1.10526    1;
    2611    1    0    0    0    0    1    1.05461133    -0.819207369    380    1    1.10526    1;
    247    1    6    -0.9    0    0    1    1.04436399    -5.99994315    225    1    1.08889    0.924444;
    248    1    17.4    1.8    0    0    1    1.05098909    -7.70859397    63    1    1.06349    0.936508;
    249    1    9.4    -0.6    0    0    1    1.02482874    -10.1519671    63    1    1.06349    0.936508;
    250    1    4.2    1.9    0    0    1    1.05053657    -9.68890201    225    1    1.08889    0.986667;
    251    1    62.1    20.2    0    0    1    1.03084467    -12.6081153    225    1    1.08684    1;
    252    2    5.5    4.5    0    0    1    0.998    -5.27032835    45    1    1    0.888889;
    253    1    -2.8    -1.5    0    0    1    1.02091447    2.94117725    380    1    1.10263    1;
    254    1    -2.8    -1.4    0    0    1    1.02112492    2.86956326    380    1    1.10263    1;
    255    1    8.3    -7.3    0    0    1    1.06563874    -7.14895513    63    1    1.06754    0.936508;
    256    1    0    0    0    0    1    1.01940355    -11.1580609    225    1    1.08889    1;