function mpc = case1888rte_resqlim
%CASE1888RTE_RESQLIM

%% MATPOWER Case Format : Version 2
mpc.version = '2';

%%-----  Power Flow Data  -----%%
%% system MVA base
mpc.baseMVA = 100;

%% bus data
%	bus_i	type	Pd	Qd	Gs	Bs	area	Vm	Va	baseKV	zone	Vmax	Vmin
mpc.bus = [
	1	1	5.8	-5.8	0	0	1	1.03149163	-43.3675174	225	1	1.08889	0.888889;
	2	1	0	0	0	0	1	1.05213443	-1.58021084	380	1	1.10263	1.04841;
	3	1	142.5	-13.4	0	0	1	1.0448891	-18.1420941	225	1	1.08444	1.00444;
	4	1	0	0	0	0	1	1.06460828	-20.4689352	150	1	1.10667	0.9;
	5	1	32.8	-5.3	0	0	1	1.06161043	-24.8507219	225	1	1.08889	0.933333;
	6	1	40.2	4	0	0	1	1.06056888	-25.1617261	225	1	1.08889	0.933333;
	7	1	0	0	0	0	1	1.05381797	-21.3323212	380	1	1.10526	1.03947;
	8	1	0	0	0	0	1	1.0570919	-22.4675375	380	1	1.10526	1.03947;
	9	1	0	0	0	0	1	1.04786355	-36.3970081	225	1	1.09035	1.00444;
	10	1	148.8	14.9	0	0	1	1.04436982	-29.0903983	225	1	1.08889	0.933333;
	11	1	25.6	5	0	0	1	1.04319522	-40.7450247	225	1	1.08889	1.00444;
	12	1	39.1	8.7	0	0	1	1.02281156	-40.2648947	225	1	1.08889	1.00444;
	13	1	70.5	17.2	0	0	1	1.04318002	-40.7421627	225	1	1.08889	1.00444;
	14	1	36	-4.2	0	0	1	1.0289425	-42.4749474	225	1	1.08252	0.95;
	15	1	0	0	0	0	1	1.05264347	-32.7088442	225	1	1.08889	1.00444;
	16	1	0	0	0	0	1	1.05264387	-32.708847	225	1	1.08889	1.00444;
	17	1	23.7	-12.4	0	0	1	1.02901437	-42.5023097	225	1	1.08889	0.888889;
	18	1	5.9	-4.8	0	0	1	1.03827601	-34.6970689	225	1	1.09633	0.986667;
	19	1	34	3.7	0	0	1	1.03589146	-40.8500992	225	1	1.08889	1.00444;
	20	1	6.9	0.8	0	0	1	1.03591807	-40.8478005	225	1	1.08889	1.00444;
	21	1	9.2	-29.1	0	0	1	1.04563987	-37.6047209	225	1	1.08889	1.00444;
	22	1	67.7	-3.6	0	0	1	1.04521346	-37.8894223	225	1	1.08889	0.986667;
	23	1	25.4	-2.7	0	0	1	1.02131978	-46.730156	225	1	1.08889	0.888889;
	25	1	64	4.6	0	0	1	1.05346427	-16.835331	225	1	1.08444	1.00889;
	27	1	71.6	46.7	0	0	1	1.02094819	-19.7644247	225	1	1.08889	0.933333;
	28	1	105.4	6.9	0	0	1	1.03730412	-35.7522349	225	1	1.08889	1.00444;
	29	1	0	0	0	0	1	1.05210077	-1.566598	380	1	1.10526	1.04842;
	30	1	0	0	0	0	1	1.05212953	-1.55022945	380	1	1.10526	1.04842;
	31	1	21.7	0.9	0	0	1	1.04898477	-4.90798084	225	1	1.08444	1.00889;
	33	1	68.9	2.6	0	0	1	1.03244032	-5.69542552	225	1	1.08444	1.00889;
	34	1	50.6	12.7	0	0	1	1.04308522	-40.6595352	225	1	1.08889	1.00444;
	35	1	17	2.1	0	0	1	1.02291816	-21.4877862	150	1	1.08	0.966667;
	36	1	38.2	6.3	0	0	1	1.06252588	-30.6212131	225	1	1.09212	1;
	37	1	0	0	0	0	1	1.07001704	-28.1934821	380	1	1.10526	1.04785;
	38	1	89	9.6	0	0	1	1.04383991	-38.0363153	225	1	1.08889	0.986667;
	2050	1	0	0	0	-64	1	1.02504433	-43.0556919	20	1	1.5	0.8;
	39	1	70.9	-2.3	0	0	1	1.02894327	-42.234342	225	1	1.08889	0.968889;
	40	1	136.2	-10.7	0	0	1	1.03444675	-38.6903423	380	1	1.10526	1;
	41	1	64.6	17.3	0	0	1	1.04164621	-27.2064586	225	1	1.08889	0.933333;
	42	1	13.4	3.3	0	0	1	1.02663724	-46.4980898	225	1	1.08889	0.888889;
	43	1	33.3	4.7	0	0	1	1.02646287	-46.5422228	225	1	1.08889	0.888889;
	44	1	211.6	-1.3	0	0	1	1.05488026	-26.0064292	225	1	1.08496	1.00444;
	45	1	92.1	-9.1	0	0	1	1.04812718	-38.8055737	225	1	1.08889	1.00444;
	46	1	0	0	0	0	1	1.04397627	-7.667229	150	1	1.10843	0.9;
	47	1	0	0	0	0	1	1.02636464	-41.1868622	225	1	1.08889	1.00444;
	48	1	0	0	0	0	1	1.02636443	-41.186861	225	1	1.08889	1.00444;
	49	1	63.7	84.5	0	-80	1	1.0263632	-41.1868541	225	1	1.08889	1.00444;
	50	1	10.4	6.6	0	0	1	1.03639131	-36.094559	225	1	1.08889	1.00444;
	51	1	0	0	0	0	1	1.05601966	-17.3148196	225	1	1.08889	1;
	52	1	68.7	16.5	0	0	1	1.01896568	-46.7935632	225	1	1.08889	0.888889;
	53	1	101.2	15.9	0	0	1	1.01034055	-45.4421283	225	1	1.08889	0.968889;
	54	1	0	0	0	0	1	1.01362655	-43.2687087	380	1	1.10526	1;
	55	1	28.9	10.6	0	0	1	1.02703203	-5.00841077	225	1	1.08444	1.00889;
	56	1	28.2	2.1	0	0	1	1.0272218	-5.00982858	225	1	1.08444	1.00889;
	1827	1	109.6	-12.9	0	0	1	1.04261168	-34.5324218	225	1	1.08889	1.00444;
	57	1	27.3	-10.9	0	0	1	1.05370138	-20.2352558	225	1	1.08945	0.933333;
	58	2	0	0	0	0	1	1.04265822	-7.87956214	150	1	1.10862	0.9;
	59	1	36.8	20.3	0	0	1	1.02318107	-1.9375651	225	1	1.08444	1.00889;
	60	1	36.5	30.8	0	0	1	1.02300961	-1.9354791	225	1	1.08444	1.00889;
	61	1	0	0	0	0	1	1.02490933	-2.79033379	225	1	1.08889	0.977778;
	62	1	8.4	-0.3	0	0	1	1.02838672	-44.7194122	225	1	1.08889	0.888889;
	63	1	13.2	-6.3	0	0	1	1.06745252	-26.3029701	225	1	1.08889	0.933333;
	64	1	13.2	3.3	0	0	1	1.02235756	-40.4018984	225	1	1.08889	1.00444;
	65	1	22.7	2.5	0	0	1	1.04797426	-36.4472029	225	1	1.08889	1.00444;
	66	1	11.4	-9.7	0	0	1	1.05842771	-17.583451	225	1	1.08889	1;
	67	1	10.2	-1.3	0	0	1	1.03887727	-32.5897756	225	1	1.08889	0.986667;
	68	1	0	0	0	0	1	1.02951004	-46.1084457	225	1	1.08889	0.888889;
	69	1	0	0	0	0	1	1.0234278	-46.3000686	225	1	1.08889	0.888889;
	70	1	0	0	0	0	1	1.03180004	-44.3353921	380	1	1.10526	1.01316;
	71	1	39.2	2.8	0	0	1	1.03661908	-40.966597	225	1	1.08889	1.00444;
	72	1	19.3	3.3	0	-80	1	1.03559859	-39.9361913	225	1	1.08889	1.00444;
	73	1	0	0	0	0	1	1.0434905	-5.2555887	225	1	1.08889	0.977778;
	74	1	0	0	0	0	1	1.04349983	-5.25490561	225	1	1.08889	0.977778;
	75	1	131.9	3.2	0	0	1	1.04179096	-5.73677267	225	1	1.08444	1.00889;
	76	1	0	0	0	0	1	1.05130163	-21.4416283	225	1	1.08444	1.00444;
	77	1	0	0	0	0	1	1.04794226	-16.5296935	380	1	1.10263	1.04211;
	78	1	94.6	-1.9	0	0	1	1.0512112	-21.49104	225	1	1.08444	1.00444;
	79	1	-1.7	-4.6	0	0	1	1.02330959	-40.169183	225	1	1.08936	1.00444;
	80	1	3.6	-7.2	0	0	1	1.02330982	-40.1732719	225	1	1.08936	1.00444;
	81	1	35.4	10.9	0	0	1	1.03217476	-41.3633313	225	1	1.08889	0.888889;
	82	1	15.1	0.7	0	0	1	1.02481772	-44.9032285	225	1	1.08124	0.95;
	83	1	57.4	18	0	0	1	1.01752803	-46.0917779	225	1	1.08889	0.888889;
	84	1	89.9	-5.8	0	0	1	1.05149311	-18.3901143	225	1	1.08889	1;
	85	1	0	0	0	0	1	1.03004262	-16.2480689	225	1	1.08889	1;
	86	1	239.8	17.5	0	0	1	1.06824054	-16.2353387	380	1	1.10526	1.0507;
	87	1	35.5	16	0	0	1	1.04626889	-13.8764192	225	1	1.08889	1;
	88	1	76.1	23	0	0	1	1.05831898	-17.4960379	225	1	1.08889	1;
	89	3	0	0	0	0	1	1.02	-11.960426	150	1	1.1	0.9;
	90	1	21.3	12	0	0	1	1.01554751	-34.5539712	225	1	1.08889	0.986667;
	91	1	11.2	-5.2	0	0	1	1.04427272	-9.08221447	225	1	1.08444	1.00889;
	92	1	0	0	0	0	1	1.04784092	-30.2367112	380	1	1.10526	1.04211;
	93	1	0	0	0	0	1	1.0481967	-30.6621744	380	1	1.10526	1.04211;
	96	1	11.7	1.3	0	0	1	1.05286051	-18.2440466	225	1	1.08889	1;
	97	1	6.1	1.4	0	0	1	1.05271543	-33.9923058	225	1	1.08889	1.00444;
	98	1	31.6	2.6	0	0	1	1.03181127	-10.5929331	150	1	1.1	0.9;
	99	1	68.9	-11.7	0	0	1	1.05394154	-19.9369797	225	1	1.08889	1;
	100	2	0.2	-0	0	0	1	1.036	-40.8885018	225	1	1.08294	0.95;
	101	1	0	0	0	0	1	1.06131031	-24.9291746	225	1	1.08889	0.933333;
	102	1	0	0	0	0	1	1.05731574	-22.4273902	380	1	1.10526	1.03947;
	103	1	0	0	0	0	1	1.05391109	-21.2988702	380	1	1.10526	1.03947;
	104	1	0	0	0	0	1	1.04342757	-40.7302439	225	1	1.08889	1.00444;
	1828	1	30.1	3.8	0	0	1	1.03331769	-41.8825332	225	1	1.08889	1.00444;
	105	1	0	0	0	0	1	1.01538029	-36.9152058	225	1	1.08889	0.986667;
	106	1	12.1	4.5	0	0	1	1.04327505	-40.7385575	225	1	1.08889	1.00444;
	107	1	106.1	-0.3	0	0	1	1.03320289	-24.2898181	225	1	1.08889	0.933333;
	108	1	0	0	0	0	1	1.0448744	-22.4544501	380	1	1.10526	1.03947;
	109	1	43.3	8.4	0	0	1	1.05395426	-16.7483392	225	1	1.08889	1;
	110	1	33.2	-7.5	0	0	1	1.0497314	-38.3098672	225	1	1.08986	1.00444;
	111	1	99.5	-12.4	0	0	1	1.07187347	-24.2230025	225	1	1.09612	1;
	112	1	116.4	-6.7	0	0	1	1.03631565	-35.6761376	225	1	1.08889	0.986667;
	113	1	65.7	14.7	0	0	1	1.04784365	-36.394606	225	1	1.09036	1.00444;
	114	1	107.2	21.2	0	0	1	1.01859116	-46.8607431	225	1	1.08889	0.924444;
	115	1	56.9	-2.7	0	0	1	1.04477565	-31.8374046	225	1	1.09614	0.986667;
	117	1	0	0	0	0	1	1.04948438	-30.7128556	380	1	1.10526	1.03947;
	119	1	123.6	-19.8	0	0	1	1.02696095	-29.3757112	225	1	1.08444	1.00444;
	2051	1	0	0	0	-64	1	1.0016469	-16.0654162	20	1	1.4	0.8;
	120	1	33.3	-21.3	0	0	1	1.05171148	-15.7802148	225	1	1.08444	1.00889;
	121	1	0	0	0	0	1	1.0481404	-13.4548026	380	1	1.10263	1.02895;
	122	1	1.7	-4.4	0	0	1	1.03374421	-24.3062831	225	1	1.08889	0.933333;
	123	1	140.3	17.3	0	0	1	1.02449419	-20.4926529	225	1	1.08889	0.933333;
	124	1	33.7	-1.8	0	0	1	1.07479417	-28.1246055	63	1	1.07937	0.920635;
	125	2	0	0	0	0	1	1.034	-10.8954764	225	1	1.07476	0.95;
	126	1	-1.9	-5.4	0	0	1	1.05903715	-9.5480852	225	1	1.09768	1;
	127	1	0	0	0	0	1	1.05356985	-9.51277117	380	1	1.10526	1.05263;
	128	1	0	0	0	0	1	1.05362495	-9.50917199	380	1	1.10526	1.05263;
	129	1	0	0	0	0	1	1.05363144	-9.5056895	380	1	1.10526	1.05263;
	130	1	0	0	0	0	1	1.05364976	-9.52130737	380	1	1.10526	1.05263;
	131	1	0	0	0	0	1	1.04462519	-31.7557312	225	1	1.09645	0.986667;
	132	1	0	0	0	0	1	1.04465297	-31.7280286	225	1	1.09645	0.986667;
	133	1	0	0	0	0	1	1.04942068	-30.6434664	380	1	1.10526	1.03947;
	134	1	77.3	-10.6	0	0	1	1.02932249	-43.6280236	225	1	1.08889	0.968889;
	135	1	28.1	3.8	0	0	1	1.05327575	-16.799144	225	1	1.08444	1.00889;
	136	1	-5.2	-9.4	0	0	1	1.04792249	-34.4221064	380	1	1.10526	1.03947;
	137	1	106.4	8	0	0	1	1.04092407	-18.1798702	225	1	1.08889	0.933333;
	138	1	0	0	0	0	1	1.04031882	-14.4962169	380	1	1.10526	1.03947;
	140	1	113.7	-8.3	0	0	1	1.04791042	-5.69239152	225	1	1.08444	1.00889;
	141	1	44.6	0.5	0	0	1	1.04719648	-5.47817587	225	1	1.08444	1.00889;
	142	1	165.2	-11.8	0	0	1	1.03830879	-17.1644561	225	1	1.08444	1.00444;
	143	1	29.2	2.1	0	0	1	1.04359366	-18.5809931	225	1	1.08889	0.933333;
	144	1	32.8	4.4	0	0	1	1.04356804	-18.5855086	225	1	1.08889	0.933333;
	145	1	19	-18.1	0	0	1	1.04972184	-38.2934711	225	1	1.08952	1.00444;
	146	1	0	0	0	0	1	1.04910574	-19.5882757	225	1	1.09478	1;
	147	1	0	0	0	0	1	1.04910381	-19.5882538	225	1	1.09478	1;
	148	1	37.1	5.6	0	0	1	1.05152992	-18.1060012	225	1	1.08889	1;
	149	1	20	-3.9	0	0	1	1.05270783	-33.917194	225	1	1.08889	1.00444;
	150	1	38.1	1.6	0	0	1	1.03634314	-9.17911438	225	1	1.08444	1.00889;
	151	1	24.8	-1.8	0	0	1	1.05060247	-18.9297558	225	1	1.08889	1;
	152	1	0	0	0	0	1	1.04392701	-10.8958056	225	1	1.08444	1.00889;
	153	1	0	0	0	0	1	1.04391586	-10.8986883	225	1	1.08444	1.00889;
	154	1	0	0	0	0	1	1.04319376	-6.10198277	225	1	1.08444	1.00889;
	155	1	0	0	0	0	1	1.04540187	-4.74377433	380	1	1.10263	1.02895;
	156	1	155.3	26.5	0	0	1	1.01779193	-46.0063433	225	1	1.08889	0.888889;
	157	1	0	0	0	0	1	1.05902294	-9.54794103	225	1	1.09766	1;
	158	1	0	0	0	0	1	1.05361111	-9.58719325	380	1	1.10526	1.05263;
	159	1	21.5	4.4	0	0	1	1.0381037	-33.594026	225	1	1.08889	0.986667;
	160	1	26.2	2.1	0	0	1	1.05367746	-17.8623115	225	1	1.08889	1;
	161	1	0	0	0	0	1	1.05125719	-33.675527	225	1	1.08444	1.00444;
	162	1	0	0	0	0	1	1.05125719	-33.675527	225	1	1.08444	1.00444;
	163	1	0	0	0	0	1	1.05126456	-33.6757238	225	1	1.08444	1.00444;
	164	1	55.3	-11.4	0	0	1	1.05125615	-33.6754992	225	1	1.08444	1.00444;
	165	1	0	0	0	0	1	1.02156758	-19.7156694	225	1	1.08889	0.933333;
	166	1	30	12.3	0	0	1	1.02862439	-28.8364099	225	1	1.08889	0.986667;
	2019	1	0	0	0	-64	1	0.961484815	-20.1227928	20	1	1.4	0.9;
	167	1	0	0	0	0	1	1.04533186	-19.5190684	225	1	1.08941	1;
	168	1	0	0	0	0	1	1.04982078	-15.7709814	380	1	1.10526	1.05263;
	169	2	0	0	0	0	1	1.065	-24.7751527	225	1	1.1	0.9;
	170	1	17.8	2.6	0	0	1	1.02144124	-22.1402371	150	1	1.08	0.966667;
	171	1	25.3	-3.2	0	0	1	1.03619829	-40.7620055	225	1	1.08889	1.00444;
	172	1	-3.7	-2	0	0	1	1.03651611	-40.7122958	225	1	1.08889	1.00444;
	173	1	37.3	0.7	0	0	1	1.01494279	-46.2174609	225	1	1.08889	0.888889;
	181	1	107.9	3.9	0	0	1	1.05060487	-18.9077529	225	1	1.08889	1;
	182	1	29.5	6.8	0	0	1	1.03297881	-36.2340634	225	1	1.08889	0.986667;
	183	1	0	0	0	0	1	1.04360773	-13.7962022	380	1	1.10526	1.03947;
	184	1	0	0	0	0	1	1.04014471	-13.6070201	380	1	1.10526	1.03947;
	185	1	0	0	0	0	1	1.04016292	-13.610669	380	1	1.10526	1.03947;
	186	1	0	0	0	0	1	1.04359917	-13.80711	380	1	1.10526	1.03947;
	187	1	28.1	-10	0	0	1	1.0315124	-45.2659381	225	1	1.08889	0.924444;
	188	1	-2	-1.1	0	0	1	1.0449726	-37.4746598	225	1	1.08889	0.986667;
	189	1	65.8	19.1	0	0	1	1.03676861	-31.409658	225	1	1.08444	1.00444;
	190	1	-2.3	1.2	0	0	1	1.04291107	-25.3707921	380	1	1.10263	1.04211;
	191	1	-2.3	1.4	0	0	1	1.04296999	-25.3756272	380	1	1.10263	1.04211;
	192	1	0	0	0	0	1	1.03637163	-41.1081873	225	1	1.08889	1.00444;
	193	1	0	0	0	0	1	1.04662996	-6.09615691	225	1	1.08889	0.977778;
	194	1	0	0	0	0	1	1.04662996	-6.09615691	225	1	1.08889	0.977778;
	195	1	83.6	-8.6	0	0	1	1.02847519	-44.2133279	225	1	1.08889	0.968889;
	196	1	0	0	0	0	1	1.03412094	-7.56888183	225	1	1.08889	0.933333;
	197	1	0	0	0	0	1	1.03309597	-8.03724246	225	1	1.08889	0.933333;
	198	1	57.5	10.2	0	0	1	1.04153343	-25.939593	225	1	1.08444	1.00444;
	199	1	177.4	-31.4	0	0	1	1.05217173	-21.8417118	225	1	1.08444	1.00444;
	200	1	0	0	0	0	1	1.03769166	-6.49219905	225	1	1.08889	0.977778;
	201	1	0	0	0	0	1	1.04243207	-24.8157018	225	1	1.08444	1.00444;
	202	1	124.2	-3.2	0	0	1	1.03200988	-44.1095305	225	1	1.08889	0.951111;
	203	1	35.3	1.9	0	0	1	1.0360842	-39.8966408	225	1	1.08889	1.00444;
	204	1	51.6	-4	0	0	1	1.04470098	-37.3761953	225	1	1.08889	0.986667;
	2086	1	0	0	0	-64	1	0.996674461	-16.6140682	20	1	1.4	0.8;
	205	1	16.9	-1.8	0	0	1	1.04515382	-16.1925319	225	1	1.08444	1.00889;
	206	1	0	0	0	0	1	1.04773566	-14.2864767	380	1	1.10263	1.02895;
	207	1	38.6	-0.7	0	0	1	1.03612046	-40.0054288	225	1	1.08889	1.00444;
	1829	2	0	0	0	0	1	1.022	-44.2230584	225	1	1.07859	0.95;
	208	1	0	0	0	0	1	1.02199256	-44.2230338	225	1	1.08889	0.888889;
	209	1	171.1	24.7	0	0	1	1.04021956	-24.9805694	225	1	1.08444	1.00444;
	210	1	46.3	14.3	0	0	1	1.03764398	-34.2955293	225	1	1.09504	0.986667;
	211	1	58.6	9.8	0	0	1	1.03249914	-6.24451963	225	1	1.08444	1.00889;
	212	1	14.6	-0.7	0	0	1	1.03241022	-5.70388353	225	1	1.08444	1.00889;
	213	1	75.4	25.3	0	0	1	1.03000025	-9.20548766	225	1	1.08889	0.933333;
	215	1	0	0	0	0	1	1.04555044	-6.54084303	380	1	1.10526	1.03947;
	216	1	74.9	-2.9	0	0	1	1.04870771	-26.2699557	380	1	1.10526	1.03947;
	217	1	0	0	0	0	1	1.0321768	-8.42226606	225	1	1.08889	0.933333;
	218	1	0	0	0	0	1	1.03124327	-8.74278423	225	1	1.08889	0.933333;
	219	1	55.6	14.5	0	0	1	1.02308902	-1.54095661	225	1	1.08444	1.00889;
	220	1	-0.1	0.8	0	0	1	1.02349971	-1.48403083	225	1	1.08444	1.00889;
	221	1	11	-0.4	0	0	1	1.03286781	-5.22275102	225	1	1.08444	1.00889;
	222	1	39.3	5.6	0	0	1	1.03906352	-29.6966918	225	1	1.08889	1.00444;
	223	1	21.6	1.4	0	0	1	1.03249391	-6.2017784	225	1	1.08444	1.00889;
	224	1	16.7	2.3	0	0	1	1.03275315	-6.15096552	225	1	1.08444	1.00889;
	225	1	2	-1.4	0	0	1	1.0336526	-45.5132353	150	1	1.10667	0.946667;
	1830	1	0	0	0	0	1	1.06229155	-32.1730451	225	1	1.08444	1.00444;
	226	1	0	0	0	0	1	1.06020546	-29.0052344	380	1	1.10263	1.04211;
	227	1	119.3	-16.4	0	0	1	1.07099491	-23.8506856	225	1	1.09795	1;
	228	1	0	0	0	0	1	1.05965664	-20.9964837	380	1	1.10526	1.05019;
	229	1	72.1	6	0	0	1	1.03128259	-44.2986305	225	1	1.08889	0.911111;
	230	1	0	0	0	0	1	1.03598719	-41.3735533	380	1	1.10526	1;
	231	1	16.1	1.9	0	0	1	1.04342172	-40.7319062	225	1	1.08889	1.00444;
	232	1	14.9	0.9	0	0	1	1.03334777	-41.8794618	225	1	1.08889	1.00444;
	233	1	6.1	1.7	0	0	1	1.03969055	-33.2359638	225	1	1.08889	0.986667;
	234	1	1.1	1.7	0	0	1	1.03973524	-33.2195289	225	1	1.08889	0.986667;
	235	1	2	-3.9	0	0	1	1.04503313	-36.0078754	225	1	1.08889	1.00444;
	236	1	2.6	2.4	0	0	1	1.04482872	-36.0064384	225	1	1.08889	1.00444;
	237	1	129	-3.4	0	0	1	1.03627859	-40.7361669	225	1	1.08889	1.00444;
	238	1	0	0	0	0	1	1.03854582	-40.6094279	225	1	1.08889	1.00444;
	239	1	25.8	4.4	0	0	1	1.04518282	-36.698553	225	1	1.08889	1.00444;
	240	1	31.9	3.6	0	0	1	1.04488141	-36.7245945	225	1	1.08889	1.00444;
	241	2	4.3	-1	0	0	1	1.011	-8.51713399	20	1	1.1	0.9;
	242	1	0	0	0	0	1	1.06214253	-9.22280501	150	1	1.08	0.966667;
	243	1	-3.4	-9.5	0	0	1	1.04140891	-26.4633412	380	1	1.11402	1.03947;
	244	1	30.9	7.4	0	0	1	1.04586177	-29.8590154	380	1	1.11482	1.03947;
	245	1	11.7	0.6	0	0	1	1.04398586	-26.1005754	380	1	1.11264	1.03947;
	246	1	-18.3	-23.8	0	0	1	1.04518356	-26.0793089	380	1	1.11483	1.03947;
	247	1	45	5.3	0	0	1	1.03576516	-40.8939837	225	1	1.08889	1.00444;
	2029	1	0	0	0	-64	1	0.964793177	-18.4557835	20	1	1.4	0.9;
	2030	1	0	0	0	-64	1	0.964024516	-18.4262029	20	1	1.4	0.9;
	248	1	0	0	0	0	1	1.05180112	-18.2354174	225	1	1.08889	1;
	249	1	0	0	0	0	1	1.05211335	-18.2338562	225	1	1.08889	1;
	250	1	0	0	0	0	1	1.07052122	-16.7611093	380	1	1.10526	1.05019;
	251	1	0.7	-3.7	0	0	1	1.030197	-9.20886235	225	1	1.08889	0.933333;
	252	1	92.9	-6	0	0	1	1.04534368	-36.8468096	380	1	1.10526	1.03537;
	2025	1	0	0	0	-58	1	0.979749784	-40.593479	20	1	1.4	0.9;
	2031	1	0	0	0	-128	1	0.947797267	-39.8616132	20	1	1.4	0.9;
	2032	1	0	0	0	-58	1	0.971365288	-40.1032143	20	1	1.4	0.9;
	2046	1	0	0	0	-58	1	0.974446777	-40.2003033	20	1	1.4	0.9;
	253	1	3.2	-0.8	0	0	1	1.0354997	-39.3070813	225	1	1.08889	1.00444;
	254	1	3.9	3	0	0	1	1.03817817	-39.4132331	225	1	1.08889	1.00444;
	255	1	0	0	0	0	1	1.04391805	-38.3837732	225	1	1.08889	1.00444;
	257	1	0	0	0	0	1	1.04144094	-36.2899082	380	1	1.10526	1.04211;
	258	1	0	0	0	0	1	1.04121523	-36.4247115	380	1	1.10526	1.04211;
	259	1	106.5	20.7	0	0	1	1.03333542	-41.1366232	225	1	1.08889	0.928889;
	260	1	157.5	-28.3	0	0	1	1.04873111	-26.2803159	380	1	1.10526	1.03947;
	261	1	91.4	-3.2	0	0	1	1.03355195	-24.1488265	225	1	1.08444	1.00444;
	262	1	5.5	-1.3	0	0	1	1.03106931	-9.32202636	225	1	1.08889	0.933333;
	263	1	208	14.9	0	0	1	1.0418485	-13.4777666	380	1	1.10526	1.03947;
	267	1	250.6	22.2	0	0	1	1.03993464	-25.4600069	225	1	1.08444	1.00444;
	268	1	0	0	0	0	1	1.04165213	-22.1042096	380	1	1.10263	1.04211;
	269	1	0	0	0	0	1	1.04166323	-22.1007115	380	1	1.10263	1.04211;
	270	2	46.4	27.4	0	0	1	1.029	-36.7141611	20	1	1.06846	0.95;
	271	1	0	0	0	0	1	1.05002435	-36.8202098	225	1	1.08889	0.986667;
	272	1	159.3	40.7	0	0	1	1.02448651	-28.2712794	225	1	1.08889	0.986667;
	273	1	203.1	3.9	0	0	1	1.05190313	-20.1867051	380	1	1.10263	1.04211;
	274	1	50	8.3	0	0	1	1.0437507	-35.3587993	225	1	1.09611	0.986667;
	275	1	17.6	-2.4	0	0	1	1.05240525	-34.9652409	225	1	1.08889	1.00444;
	276	1	22.7	-2.9	0	0	1	1.02643963	-41.2776881	225	1	1.08889	1.00444;
	278	1	0	0	0	0	1	1.05988343	-16.4521907	20	1	1.4	0.9;
	279	1	36.2	-22.3	0	0	1	1.0495836	-15.966302	225	1	1.08889	0.933333;
	280	1	169.5	24.1	0	0	1	1.04155781	-13.7050106	380	1	1.10526	1.03947;
	281	1	0	0	0	0	1	1.04342748	-20.2211676	225	1	1.08959	1;
	282	1	0	0	0	0	1	1.0455526	-19.5217727	225	1	1.08959	1;
	283	1	0	0	0	0	1	1.01712241	-12.3627912	150	1	1.08	0.966667;
	284	1	25.8	-6.7	0	0	1	1.04695182	-36.2729918	225	1	1.08889	1.00444;
	285	1	65.6	-1	0	0	1	1.03618941	-36.4751091	225	1	1.08889	1.00444;
	286	1	52.2	0.8	0	0	1	1.05335024	-27.3735346	225	1	1.08889	0.933333;
	287	1	19.7	-0.8	0	0	1	1.03326417	-28.5899003	225	1	1.08444	1.00444;
	288	1	17.6	2	0	0	1	1.03326292	-28.5896345	225	1	1.08444	1.00444;
	289	1	58.8	-0.8	0	0	1	1.03721443	-35.8277629	225	1	1.08889	1.00444;
	2062	1	0	0	0	-64	1	0.975621449	-35.3532236	20	1	1.4	0.9;
	290	1	108.4	-13.2	0	0	1	1.03489552	-35.0800078	225	1	1.08889	1.00444;
	291	1	0	0	0	0	1	1.04203489	-33.6596302	380	1	1.10526	1.04211;
	292	1	0	0	0	0	1	1.04220585	-33.6868877	380	1	1.10526	1.04211;
	293	1	0	0	0	0	1	1.04652076	-32.628151	380	1	1.10526	1.04211;
	294	1	0	0	0	0	1	1.04212097	-33.6732636	380	1	1.10526	1.04211;
	295	1	160.9	1.6	0	0	1	1.03331191	-24.5024871	225	1	1.08444	1.00444;
	296	1	0	0	0	0	1	1.03432851	-41.0519375	380	1	1.10526	1;
	297	1	34.4	6.6	0	0	1	1.04778695	-36.3541941	225	1	1.08889	1.00444;
	298	1	0	0	0	0	1	1.02603302	-41.3405755	225	1	1.08889	1.00444;
	299	1	0	0	0	0	1	1.05368912	-19.122204	380	1	1.10526	1.03947;
	300	1	0	0	0	0	1	1.0478313	-16.4825824	380	1	1.10263	1.04211;
	301	1	0	0	0	0	1	1.04786839	-16.4816724	380	1	1.10263	1.04211;
	302	1	0	0	0	0	1	1.04787589	-16.4816458	380	1	1.10263	1.04211;
	303	1	184.2	-18.9	0	0	1	1.04321606	-24.7817971	225	1	1.08444	1.00444;
	304	1	-15.6	-17.2	0	0	1	1.03655276	-36.5356343	380	1	1.11618	1;
	305	1	-23.2	0.6	0	0	1	1.03863634	-37.0241905	380	1	1.11703	1;
	306	1	42.2	-0.7	0	0	1	1.02763155	-42.7127672	225	1	1.08889	0.888889;
	2047	1	0	0	0	-64	1	0.970202429	-36.0928134	20	1	1.4	0.9;
	307	1	0	0	0	0	1	1.0376658	-35.3577616	225	1	1.08889	1.00444;
	308	1	0	0	0	0	1	1.04149565	-32.4673472	380	1	1.10526	1.04211;
	309	1	96.9	-28.2	0	0	1	1.05949115	-18.2626022	225	1	1.09445	1;
	310	1	-1.7	-3.4	0	0	1	1.04207673	-9.27009835	380	1	1.10263	1.04211;
	311	1	-10.7	-3.4	0	0	1	1.04207976	-9.29586275	380	1	1.10263	1.04211;
	312	1	-7.2	-9.3	0	0	1	1.03653406	-28.1249579	225	1	1.08895	0.933333;
	313	1	87.6	-1.8	0	0	1	1.05266197	-35.0689464	225	1	1.08889	1.00444;
	314	1	32.2	7.9	0	0	1	1.01866203	-46.6999847	225	1	1.08889	0.888889;
	315	1	28.6	2.6	0	0	1	1.01882141	-46.696613	225	1	1.08889	0.888889;
	316	1	0	0	0	0	1	1.07480581	-23.2528354	380	1	1.10526	1.03947;
	317	1	141.6	32.1	0	0	1	1.04593544	-15.9866952	225	1	1.08889	1;
	318	1	30.1	-3	0	0	1	1.02651844	-41.261464	225	1	1.08889	1.00444;
	319	1	8.2	4.4	0	0	1	1.02241048	-23.7505558	150	1	1.10667	0.9;
	320	1	91.6	8.9	0	0	1	1.04274089	-31.9397145	225	1	1.08576	1.00444;
	321	1	2.9	-9.7	0	0	1	1.03602227	-29.1642703	225	1	1.08889	0.986667;
	323	1	94.6	-5.5	0	0	1	1.03377138	-42.886698	225	1	1.08889	1.00444;
	324	1	17.7	6.3	0	0	1	1.01604765	-26.5626694	225	1	1.08889	0.933333;
	325	1	91.8	-15.3	0	0	1	1.05728923	-34.0146721	225	1	1.08444	1.00444;
	326	1	29	-1.9	0	0	1	1.03279106	-5.92725772	225	1	1.08444	1.00889;
	327	1	22.1	-5.8	0	0	1	1.06511227	-22.5625051	20	1	1.4	0.9;
	328	1	26.3	1.4	0	0	1	1.04248667	-16.4615787	225	1	1.08889	0.933333;
	329	1	106.1	10.1	0	0	1	1.05915251	-25.5163992	225	1	1.08889	0.933333;
	330	1	42.6	6.9	0	0	1	1.04491509	-36.7055295	225	1	1.08889	1.00444;
	331	1	19.5	5	0	0	1	1.03725093	-35.8414823	225	1	1.08889	1.00444;
	332	1	17.7	-2.8	0	0	1	1.03733555	-35.8227789	225	1	1.08889	1.00444;
	333	1	47.6	-5.2	0	0	1	1.0495802	-31.7793777	225	1	1.08889	1.00444;
	2072	1	110.4	-2	0	0	1	1.04245392	-30.8287609	225	1	1.08889	1.00444;
	334	1	111.9	35.6	0	0	1	1.01765905	-46.5088399	225	1	1.08889	0.888889;
	335	1	218.9	-21.9	0	0	1	1.04549578	-24.6828313	225	1	1.08444	1.00444;
	336	1	-0	-0	0	0	1	1.03512844	-22.2301508	225	1	1.08444	1.00444;
	337	1	-0.6	6.7	0	0	1	1.03535314	-22.276432	225	1	1.08444	1.00444;
	338	1	-0.8	0.3	0	0	1	1.03586777	-22.3974911	225	1	1.08444	1.00444;
	339	1	-1.5	2.5	0	0	1	1.05374002	-22.8186451	380	1	1.10263	1.04211;
	340	1	0	0	0	0	1	1.04860388	-15.2680027	225	1	1.08889	0.933333;
	341	1	33.8	7.7	0	0	1	1.02628946	-41.3041865	225	1	1.08889	1.00444;
	342	1	25.1	2.5	0	0	1	1.04799535	-36.4393075	225	1	1.08889	1.00444;
	343	1	90	0.8	0	-80	1	1.04294724	-40.6018792	225	1	1.08889	1.00444;
	345	1	40.6	-7.8	0	0	1	1.04979708	-27.71928	225	1	1.08889	0.933333;
	346	1	120.4	8.9	0	0	1	1.04861119	-28.2589196	225	1	1.08889	0.933333;
	347	1	0	0	0	0	1	1.04955776	-25.1826053	380	1	1.10526	1.03947;
	348	1	-1.7	0.4	0	0	1	1.03585348	-22.4836387	225	1	1.08444	1.00444;
	350	1	0	0	0	0	1	1.05383065	-22.8457788	380	1	1.10263	1.04211;
	351	1	94.8	-2.9	0	0	1	1.03355269	-40.3545617	225	1	1.08889	1.00444;
	352	1	-6.2	-11.5	0	0	1	1.03432392	-40.3469027	225	1	1.08889	1.00444;
	353	1	73.9	-6.2	0	0	1	1.04081503	-31.5293801	225	1	1.09066	0.986667;
	354	1	111.6	-8.6	0	0	1	1.04519707	-11.8774716	225	1	1.08444	1.00889;
	355	2	0	0	0	0	1	1.05	-15.0119831	225	1	1.1	0.9;
	356	1	0	0	0	0	1	1.04880221	-16.2045141	225	1	1.0841	0.95;
	357	1	0	0	0	0	1	1.05502456	-0.968147302	380	1	1.10263	1.05526;
	358	1	21.1	15.6	0	0	1	1.02745159	-11.4842526	225	1	1.08889	0.933333;
	359	1	54	-15.6	0	0	1	1.04422822	-32.4546114	225	1	1.08618	1.00444;
	360	1	7.3	-14.5	0	0	1	1.04408562	-15.9179841	225	1	1.08889	0.933333;
	361	1	19.1	5	0	0	1	1.04438155	-15.9295108	225	1	1.08889	0.933333;
	362	1	0	0	0	0	1	1.04366954	-16.2879466	225	1	1.08889	0.933333;
	363	1	0	0	0	0	1	1.05138312	-13.8261145	380	1	1.10526	1.03467;
	364	1	23.9	-12.1	0	0	1	1.03508399	-33.0155554	225	1	1.08889	0.986667;
	365	1	113.3	2.9	0	0	1	1.02983527	-31.230604	225	1	1.08889	0.986667;
	366	1	-12.9	13.9	0	0	1	0.982852382	-27.6238485	150	1	1.1	0.9;
	367	1	55.9	-12	0	0	1	1.02487335	-46.6816165	225	1	1.08889	0.933333;
	2014	1	0	0	0	-80	1	1.01748291	-34.2116176	20	1	1.4	0.9;
	368	1	114.8	16.5	0	0	1	1.02172196	-34.0188454	225	1	1.08889	0.986667;
	369	1	0	0	0	0	1	1.0535296	-32.9702166	380	1	1.10526	1.03947;
	370	1	52.4	7.6	0	0	1	1.02609008	-41.3309656	225	1	1.08889	1.00444;
	371	1	0	0	0	0	1	1.04797683	-36.381231	225	1	1.08889	1.00444;
	372	1	0	0	0	0	1	1.0439203	-17.2963655	380	1	1.10526	1.03947;
	373	1	0	0	0	0	1	1.03928313	-16.6717117	380	1	1.10526	1.03947;
	374	1	25.6	5.5	0	0	1	1.03587093	-40.0312126	225	1	1.08889	1.00444;
	375	1	24.1	2.2	0	0	1	1.03652494	-41.0795499	225	1	1.08889	1.00444;
	376	1	-2.9	-7.4	0	0	1	1.04833094	-5.86846084	225	1	1.08444	1.00889;
	377	1	0	0	0	0	1	1.02720502	-47.1628588	225	1	1.08889	0.888889;
	378	1	51.5	21.6	0	0	1	1.03635288	-18.4708562	225	1	1.08889	0.933333;
	379	1	0	0	0	0	1	1.05105846	-17.5442019	225	1	1.08889	1;
	380	1	0.2	0.1	0	0	1	1.03867291	-6.61840621	225	1	1.08444	1.00889;
	381	1	0	0	0	0	1	1.05529301	-0.72716954	380	1	1.10526	1.05263;
	382	1	0	0	0	0	1	1.05525641	-0.724171153	380	1	1.10526	1.05263;
	383	1	0	0	0	0	1	1.05533107	-0.707807653	380	1	1.10526	1.05263;
	384	1	0	0	0	0	1	1.05492074	-0.979096573	380	1	1.10526	1.05263;
	385	1	12.8	1.6	0	0	1	1.04885122	-28.4465132	225	1	1.08889	0.933333;
	386	1	0	0	0	0	1	1.06157794	-9.23754165	150	1	1.08	0.966667;
	387	1	76	0.3	0	0	1	1.04047341	-5.94841797	225	1	1.08444	1.00889;
	388	1	90.6	16.2	0	0	1	1.05460722	-16.1642351	225	1	1.08889	1;
	390	1	0	0	0	0	1	1.05457932	-11.8708186	380	1	1.10526	1.05263;
	391	1	1.4	-0.4	0	0	1	1.03599563	-40.7689327	225	1	1.08889	0.888889;
	392	1	0	0	0	0	1	1.03367755	-11.2454023	225	1	1.08444	1.00889;
	393	1	10.3	-1.3	0	0	1	1.02660037	-27.3311596	225	1	1.08889	0.986667;
	394	1	70.2	9.1	0	0	1	1.04296559	-32.2006792	225	1	1.09515	0.986667;
	395	1	44.8	-25	0	0	1	1.04362789	-18.5681604	225	1	1.08889	0.933333;
	396	2	0	0	0	0	1	1.015	-6.88179674	20	1	1.1	0.9;
	397	1	0	0	0	0	1	1.06174342	-9.22647612	150	1	1.08	0.966667;
	398	1	159.8	-1.9	0	0	1	1.03326964	-28.5877829	225	1	1.08444	1.00444;
	399	1	52.9	18.2	0	0	1	1.03579299	-38.0335196	225	1	1.09125	0.906667;
	400	1	0	0	0	0	1	1.02369805	-1.89227022	225	1	1.08889	0.977778;
	401	1	0	0	0	0	1	1.02335194	-1.58992296	225	1	1.08889	0.977778;
	402	1	33	11.5	0	0	1	1.04277211	-40.773808	225	1	1.08889	1.00444;
	403	1	74.8	9.4	0	0	1	1.03645401	-40.9618946	225	1	1.08889	1.00444;
	404	1	25.3	-19.4	0	0	1	1.02126414	-46.5788391	225	1	1.08889	0.92;
	405	1	0	0	0	0	1	1.03665486	-36.073501	225	1	1.08889	1.00444;
	406	1	151.6	7.9	0	0	1	1.03345991	-35.5116853	225	1	1.08889	1.00444;
	407	1	28.1	1	0	0	1	1.03620723	-39.5680993	225	1	1.08889	1.00444;
	408	1	48.6	-17.6	0	0	1	1.04181437	-18.4082499	225	1	1.08889	0.933333;
	409	1	103.5	-2.1	0	0	1	1.05346325	-26.9188019	225	1	1.08449	1.00444;
	410	1	17.9	2.6	0	0	1	1.04800898	-36.4160993	225	1	1.09028	1.00444;
	411	1	0	0	0	0	1	1.04320344	-31.8916128	225	1	1.09787	0.986667;
	412	1	45.4	4.6	0	0	1	1.04900767	-16.6029932	225	1	1.08444	1.00889;
	413	1	59.3	-1.6	0	0	1	1.04319005	-31.9048342	225	1	1.09778	0.986667;
	414	1	139.2	-6.3	0	0	1	1.04135784	-31.5090019	225	1	1.08994	0.986667;
	416	1	97.9	14.3	0	0	1	1.04201298	-6.11072869	225	1	1.08444	1.00889;
	418	1	39.8	11.4	0	0	1	1.04981135	-16.3081923	225	1	1.08889	0.933333;
	419	1	12.4	-12	0	0	1	1.0416969	-32.0620919	225	1	1.08889	0.986667;
	420	1	67.3	-48.8	0	0	1	1.03801455	-26.5891359	225	1	1.08444	1.00444;
	421	1	0	0	0	0	1	1.04211747	-27.2274003	380	1	1.10263	1.04211;
	422	1	55.2	21.1	0	0	1	1.02766134	-42.3110552	225	1	1.08889	0.906667;
	423	1	54.2	-25.9	0	0	1	1.05706603	-19.6462444	225	1	1.08889	1;
	424	1	29.5	4.9	0	0	1	1.05269974	-34.7943299	225	1	1.08889	1.00444;
	425	1	3.5	-5.7	0	0	1	1.02351148	-1.48423302	225	1	1.08444	1.00889;
	426	1	0	0	0	0	1	1.03375902	-45.5063449	150	1	1.10667	0.946667;
	427	1	0	-0.5	0	0	1	1.01904969	-46.6550841	225	1	1.08889	0.888889;
	428	1	29.8	-0.8	0	0	1	1.0386983	-16.6495212	225	1	1.08889	0.933333;
	429	1	15.6	-0.3	0	0	1	1.02234264	-45.0482308	225	1	1.08889	0.888889;
	430	1	0	0	0	0	1	1.01523631	-48.34983	225	1	1.08889	0.888889;
	431	1	0	0	0	0	1	1.09635564	-34.9276616	380	1	1.10526	1.03947;
	432	1	65.1	1.4	0	0	1	1.02951942	-36.7592657	225	1	1.08889	0.986667;
	433	1	82.9	54.3	0	0	1	1.00971306	4.17833422	225	1	1.04444	0.982222;
	434	1	0	0	0	0	1	1.04970259	-32.7451321	225	1	1.08444	1.00444;
	435	1	110	-8	0	0	1	1.05039984	-21.4581207	225	1	1.08444	1.00444;
	436	1	0	0	0	0	1	1.05057424	-18.0623603	380	1	1.10263	1.04211;
	437	1	0	0	0	0	1	1.02068663	-44.879864	225	1	1.15556	0.888889;
	438	1	0	0	0	0	1	1.02070078	-44.7641157	225	1	1.15556	0.888889;
	439	1	59.2	-11	0	0	1	1.04804239	-33.6152686	225	1	1.08444	1.00444;
	2020	1	0	0	0	-64	1	0.988947218	-24.8920941	20	1	1.05	0.991275;
	440	1	84.4	-24.6	0	0	1	1.0436063	-24.6672613	225	1	1.08444	1.00444;
	441	1	91.2	6.1	0	0	1	1.05688439	-23.6025788	380	1	1.10263	1.04211;
	442	1	0	0	0	0	1	1.05560172	-13.3193811	225	1	1.08889	1;
	443	1	0	0	0	0	1	1.05410639	-7.980886	380	1	1.10526	1.05263;
	444	1	59.8	8.6	0	0	1	1.04010624	-21.5178612	225	1	1.08889	1;
	445	1	25.8	1.1	0	0	1	1.03146879	-24.6211798	225	1	1.08444	1.00444;
	446	1	18.6	6.2	0	0	1	1.02054961	-46.6421859	225	1	1.08889	0.888889;
	447	1	3.3	0.6	0	0	1	1.03608239	-39.8967874	225	1	1.08889	1.00444;
	448	1	126.9	4.6	0	0	1	1.03894008	-29.5639357	225	1	1.08522	0.95;
	449	1	4.1	-16.5	0	0	1	1.02062509	-46.1361693	225	1	1.08889	0.888889;
	450	1	40.9	3.2	0	0	1	1.02941495	-5.20189241	225	1	1.08444	1.00889;
	451	1	0	0	0	0	1	1.04291055	-28.3100677	380	1	1.10263	1.04211;
	452	1	0	0	0	0	1	1.04291055	-28.3100677	380	1	1.10263	1.04211;
	453	1	0	0	0	0	1	1.04291168	-28.3086342	380	1	1.10263	1.04211;
	454	1	0	0	0	0	1	1.04291448	-28.3049273	380	1	1.10263	1.04211;
	455	1	42.8	6.6	0	0	1	1.04644638	-16.3943716	225	1	1.08444	1.00889;
	456	1	0	0	0	0	1	1.03600463	-15.2652269	225	1	1.08889	0.933333;
	458	1	0	0	0	0	1	1.03858028	-11.1537678	380	1	1.10526	1.03947;
	459	1	99.1	5.3	0	0	1	1.01057208	-45.9701755	225	1	1.08889	0.968889;
	460	1	24.2	14.3	0	0	1	1.01034124	4.14356812	225	1	1.04444	0.982222;
	2033	1	0	0	0	-64	1	0.996622087	-21.1759632	20	1	1.05	0.936598;
	461	1	84.1	-55	0	0	1	1.04975886	-19.9317529	225	1	1.08444	1.00444;
	462	1	0	0	0	0	1	1.04549311	-15.2325115	380	1	1.10263	1.04211;
	463	1	31.5	-6.1	0	0	1	1.0482042	-38.5033569	225	1	1.08889	1.00444;