function mpc = case2383wp_resqlim
%CASE2383WP_RESQLIM

%% MATPOWER Case Format : Version 2
mpc.version = '2';

%%-----  Power Flow Data  -----%%
%% system MVA base
mpc.baseMVA = 100;

%% bus data
%	bus_i	type	Pd	Qd	Gs	Bs	area	Vm	Va	baseKV	zone	Vmax	Vmin
mpc.bus = [
	1	1	0	0	0	0	1	0.707663956	-40.9475676	220	1	1.11	0.95;
	2	1	0	0	0	0	1	0.082013737	-29.8594343	220	1	1.11	0.95;
	3	1	0	0	0	0	1	0.204082698	-244.41104	220	1	1.11	0.95;
	4	1	0	0	0	0	1	1.4241406	-9.2655633	220	1	1.11	0.95;
	5	1	0	0	0	0	1	5.10984138	70.4047139	220	1	1.11	0.95;
	6	1	0	0	0	0	1	2.337991	-117.767349	400	1	1.05	0.95;
	7	1	0	0	0	0	1	1.9361709	-265.101863	220	1	1.11	0.95;
	8	1	0	0	0	0	1	3.64240886	46.0984225	400	1	1.05	0.95;
	9	1	0	0	0	0	1	4.80405937	15.9553476	400	1	1.05	0.95;
	10	1	12.23	9	0	0	1	1.2884721	-19.6680427	220	1	1.11	0.95;
	11	1	0	0	0	0	1	2.08578782	-109.744514	220	1	1.11	0.95;
	12	1	0	0	0	0	1	1.44604731	-232.685684	220	1	1.11	0.95;
	13	1	0	0	0	0	1	0.0664603141	-43.3839336	220	1	1.11	0.95;
	14	1	0	0	0	0	1	4.63278982	72.3366682	220	1	1.11	0.95;
	15	1	0	0	0	0	1	0.453151066	-262.091944	400	1	1.05	0.95;
	16	1	54.88	100	0	0	1	0.22210008	-218.015298	220	1	1.11	0.95;
	17	1	77	150	0	0	1	10.6737346	-161.488233	220	1	1.11	0.95;
	18	1	153	350	0	0	1	1.37192812	0	400	1	1.05	0.95;
	19	1	0	0	0	0	1	6.53035753	-42.3423505	220	1	1.11	0.95;
	20	1	0	0	0	0	1	0.0508497129	-4.36257235	400	1	1.05	0.95;
	21	1	0	0	0	0	1	0.0205250662	4.80985163	220	1	1.11	0.95;
	22	1	0	0	0	0	1	0.00445600001	-14.4892304	220	1	1.11	0.95;
	23	1	0	0	0	0	1	3.49672369	-102.506589	220	2	1.11	0.95;
	24	1	0	0	0	0	1	0.790366648	-215.157322	220	2	1.11	0.95;
	25	1	0	0	0	0	1	1.36676379	-83.8335136	220	2	1.11	0.95;
	26	1	0	0	0	0	1	4.49975583	15.9629138	220	2	1.11	0.95;
	27	1	0	0	0	0	1	0.271849088	78.2953495	220	2	1.11	0.95;
	28	1	0	0	0	0	1	0.120809097	-146.891176	220	2	1.11	0.95;
	29	1	25.98	60	0	0	1	0.399797669	-185.662673	220	2	1.11	0.95;
	30	1	25.98	60	0	0	1	0.0606808215	-166.750995	220	2	1.11	0.95;
	31	1	20.98	50	0	0	1	0.465999535	-178.158145	400	2	1.05	0.95;
	32	1	0	0	0	0	1	0.147969129	-152.992327	400	2	1.05	0.95;
	33	1	0	0	0	0	1	0.149666273	44.414086	220	2	1.11	0.95;
	34	1	0	0	0	0	1	0.0246002542	-128.522535	400	2	1.05	0.95;
	35	1	0	0	0	0	1	0.0185200295	-85.9936264	400	2	1.05	0.95;
	36	1	0	0	0	0	1	3.05565913	-143.397386	400	2	1.05	0.95;
	37	1	0	0	0	0	1	0.0169790642	-48.2435768	220	2	1.11	0.95;
	38	1	0	0	0	0	1	0.106939864	-19.5082197	220	2	1.11	0.95;
	39	1	0	0	0	0	1	0.314947998	-76.4608432	400	2	1.05	0.95;
	40	1	0	0	0	0	1	0.0358131643	-8.85765934	400	2	1.05	0.95;
	41	1	11.99	30	0	0	1	0.0527776489	-197.13549	220	2	1.11	0.95;
	42	1	11.99	30	0	0	1	0.0378003666	-59.3828595	220	2	1.11	0.95;
	43	1	23.98	60	0	0	1	0.0599836912	-197.611056	400	2	1.05	0.95;
	44	1	23.98	60	0	0	1	0.869094904	-103.148982	400	2	1.05	0.95;
	45	1	159.84	75	0	0	1	0.0500394954	3.57814373	220	2	1.11	0.95;
	46	1	0	0	0	0	1	0.168889496	-226.276554	220	2	1.11	0.95;
	47	1	0	0	0	0	1	4.65933173	-149.685294	220	2	1.11	0.95;
	48	1	0	0	0	0	1	0.0932159056	-12.2699184	220	2	1.11	0.95;
	49	1	0	0	0	0	1	0.0301742919	-24.1654286	220	2	1.11	0.95;
	50	1	0	0	0	0	1	0.769605437	-257.997442	400	2	1.05	0.95;
	51	1	0	0	0	0	1	0.116869782	-134.828346	400	2	1.05	0.95;
	52	1	0	0	0	0	1	0.0024908555	-46.5061872	220	2	1.11	0.95;
	53	1	0	0	0	0	1	3.3412787	-92.4065446	220	2	1.11	0.95;
	54	1	0	0	0	0	1	0.203421253	-83.6177503	220	2	1.11	0.95;
	55	1	0	0	0	0	1	0.341363091	-232.766885	220	2	1.11	0.95;
	56	1	0	0	0	0	1	1.54192208	13.933468	220	3	1.11	0.95;
	57	1	22.98	10.96	0	0	1	0.0292136146	-171.568537	220	3	1.11	0.95;
	58	1	21.98	5.79	0	0	1	0.0323016696	-110.878896	220	3	1.11	0.95;
	59	1	0	0	0	0	1	5.24567808	-11.9808578	220	3	1.11	0.95;
	60	1	0	0	0	0	1	7.35432075	-43.1614511	220	3	1.11	0.95;
	61	1	0	0	0	0	1	0.083661715	-137.954704	220	3	1.11	0.95;
	62	1	0	0	0	0	1	0.0231947509	-246.626177	220	3	1.11	0.95;
	63	1	37.37	52.69	0	0	1	4.31048731	-133.153736	220	3	1.11	0.95;
	64	1	35.37	55.32	0	0	1	0.946961933	-29.9630058	220	3	1.11	0.95;
	65	1	13.39	2.02	0	0	1	0.936133873	-266.743639	220	3	1.11	0.95;
	66	1	0	0	0	0	1	6.63970131	60.5077486	220	3	1.11	0.95;
	67	1	60.4	92.1	0	0	1	14.8693348	-198.56858	400	3	1.05	0.95;
	68	1	0	0	0	0	1	69.4621294	-37.7323746	220	3	1.11	0.95;
	69	1	0	0	0	0	1	1.86468776	-187.661981	220	3	1.11	0.95;
	70	1	0	0	0	0	1	1.02947376	47.4230833	220	3	1.11	0.95;
	71	1	0	0	0	0	1	4.89075259	-82.4355855	220	3	1.11	0.95;
	72	1	0	0	0	0	1	4.89075259	-82.4355855	220	3	1.11	0.95;
	73	1	0	0	0	0	1	0.457915297	36.07443	220	3	1.11	0.95;
	74	1	0	0	0	0	1	3.98749536	-158.656808	220	3	1.11	0.95;
	75	1	0	0	0	0	1	0.0597875359	-244.727393	400	3	1.05	0.95;
	76	1	0	0	0	0	1	0.0712607217	71.3445124	400	3	1.05	0.95;
	77	1	0	0	0	0	1	1.96366731	-16.0407376	220	3	1.11	0.95;
	78	1	0	0	0	0	1	1.79722434	-60.2662045	220	3	1.11	0.95;
	79	1	0	0	0	0	1	0.012500489	2.09974455	220	3	1.11	0.95;
	80	1	0	0	0	0	1	0.00426966638	-170.278018	220	3	1.11	0.95;
	81	1	0	0	0	0	1	0.0112364182	-217.125794	220	3	1.11	0.95;
	82	1	0	0	0	0	1	2.66981258	-165.056621	220	3	1.11	0.95;
	83	1	15.99	22.97	0	0	1	0.0461097684	17.7200903	220	3	1.11	0.95;
	84	1	15.79	22.27	0	0	1	0.0221082676	78.5742108	220	3	1.11	0.95;
	85	1	9.99	17.01	0	0	1	0.174859954	-184.197241	220	3	1.11	0.95;
	86	1	9.99	16.66	0	0	1	0.217166181	78.8620207	220	3	1.11	0.95;
	87	1	11.09	16.22	0	0	1	0.00652489335	-54.0271034	220	3	1.11	0.95;
	88	1	0	0	0	0	1	0.000721773635	43.8856647	220	3	1.11	0.95;
	89	1	0	0	0	0	1	0.599427005	-132.766117	220	3	1.11	0.95;
	90	1	0	0	0	0	1	0.707677732	32.3709101	220	3	1.11	0.95;
	91	1	0	0	0	0	1	4.4982491	-127.52692	220	3	1.11	0.95;
	92	1	0	0	0	0	1	12.4069455	-102.533826	400	3	1.05	0.95;
	93	1	9.99	16.39	0	0	1	0.289415002	-157.444149	220	3	1.11	0.95;
	94	1	0	0	0	0	1	0.276571701	-206.825551	220	3	1.11	0.95;
	95	1	6.89	8.15	0	0	1	0.159765721	-221.563888	220	3	1.11	0.95;
	96	1	0	0	0	0	1	0.13580218	-29.9829861	220	3	1.11	0.95;
	97	1	8.69	5.26	0	0	1	4.05311471	53.4098514	220	3	1.11	0.95;
	98	1	0	0	0	0	1	1.17173848	-95.9905583	400	3	1.05	0.95;
	99	1	0	0	0	0	1	0.785641728	-33.5475704	400	3	1.05	0.95;
	100	1	0	0	0	0	1	0.269692727	76.258142	400	3	1.05	0.95;
	101	1	0	0	0	0	1	0.838207658	-134.697022	400	3	1.05	0.95;
	102	1	0	0	0	0	1	0.546215051	-1.38596212	220	3	1.11	0.95;
	103	1	18.09	23.76	0	0	1	0.13498186	0.033726072	220	3	1.11	0.95;
	104	1	33.68	46.11	0	0	1	0.386136412	31.4792789	220	3	1.11	0.95;
	105	1	33.78	62.95	0	0	1	0.617535193	-88.2510392	400	3	1.05	0.95;
	106	1	0	0	0	0	1	2.65695009	-189.260934	400	3	1.05	0.95;
	107	1	0	0	0	0	1	1.25385935	-61.7172865	220	3	1.11	0.95;
	108	1	0	0	0	0	1	1.67364701	-52.7005854	220	3	1.11	0.95;
	109	1	1	22.36	0	0	1	0.40651146	13.4016551	220	3	1.11	0.95;
	110	1	1	22.18	0	0	1	0.0624882878	-125.054075	220	3	1.11	0.95;
	111	1	26.49	18	0	0	1	0.0798015674	-118.937815	220	4	1.11	0.95;
	112	1	0	0	0	0	1	2.00649257e-06	-252.15582	220	4	1.11	0.95;
	113	1	0	0	0	0	1	2.57694924	56.1787672	220	4	1.11	0.95;
	114	1	0	0	0	0	1	4.80601899	-242.648857	220	4	1.11	0.95;
	115	1	0	0	0	0	1	0.0408123107	-56.6294914	400	4	1.05	0.95;
	116	1	0	0	0	0	1	0.110682201	42.5142021	400	4	1.05	0.95;
	117	1	0	0	0	0	1	34.5001452	-59.6528663	220	4	1.11	0.95;
	118	1	0	0	0	0	1	23.0134287	-178.822936	220	4	1.11	0.95;
	119	1	0	0	0	0	1	23.0134287	-178.822936	220	4	1.11	0.95;
	120	1	0	0	0	0	1	12.5943756	-148.895923	220	4	1.11	0.95;
	121	1	0	0	0	0	1	14.9832568	-195.45711	220	4	1.11	0.95;
	122	1	0	0	0	0	1	14.9832568	-195.45711	220	4	1.11	0.95;
	123	1	5.5	7	0	0	1	0.0224426155	-202.140108	220	4	1.11	0.95;
	124	1	8.79	17	0	0	1	0.367134715	-237.141781	220	4	1.11	0.95;
	125	1	35.7	18.3	0	0	1	0.677790206	79.3733901	220	4	1.11	0.95;
	126	1	25.28	15.9	0	0	1	0.525432329	-32.7491535	220	4	1.11	0.95;
	127	1	25.71	15.3	0	0	1	3.62261842	-238.435905	400	4	1.05	0.95;
	128	1	0	0	0	0	1	4.44878445	4.90500916	400	4	1.05	0.95;
	129	1	0	0	0	0	1	0.911159739	48.0774934	220	4	1.11	0.95;
	130	1	0	0	0	0	1	9.8189162	-249.812607	220	4	1.11	0.95;
	131	1	68.67	70	0	0	1	0.410267783	74.5412605	220	4	1.11	0.95;
	132	1	33	45	0	0	1	0.883886955	29.9333265	220	4	1.11	0.95;
	133	1	0	0	0	0	1	0.041153602	-224.20376	400	4	1.05	0.95;
	134	1	0	0	0	0	1	0.000676692953	-38.1758534	400	4	1.05	0.95;
	135	1	0	0	0	0	1	17.6591146	-246.974714	220	4	1.11	0.95;
	136	1	0	0	0	0	1	17.6591146	-246.974714	220	4	1.11	0.95;
	137	1	0	0	0	0	1	11.0157448	-119.386594	400	4	1.05	0.95;
	138	1	0	0	0	0	1	11.0157448	-119.386594	400	4	1.05	0.95;
	139	1	33.2	22.6	0	0	1	0.192857651	-248.218748	220	4	1.11	0.95;
	140	1	29.23	19.6	0	0	1	0.0356891439	-0.850552445	220	4	1.11	0.95;
	141	1	0	0	0	0	1	0.439559949	-189.327069	220	4	1.11	0.95;
	142	1	0	0	0	0	1	13.8179023	-256.512932	220	4	1.11	0.95;
	143	1	0	0	0	0	1	0.233750403	-155.847248	220	4	1.11	0.95;
	144	1	0	0	0	0	1	0.323238047	-57.0870813	220	4	1.11	0.95;
	145	1	0	0	0	0	1	6.79512751	-199.667855	400	4	1.05	0.95;
	146	1	0	0	0	0	1	6.79512751	-199.667855	400	4	1.05	0.95;
	147	1	0	0	0	0	1	0.411358906	-52.1461902	220	4	1.11	0.95;
	148	1	0	0	0	0	1	0.119440177	-52.8594573	220	4	1.11	0.95;
	149	1	0	0	0	0	1	0.122222105	-227.975217	220	4	1.11	0.95;
	150	1	0	0	0	0	1	0.12862849	-255.841554	220	4	1.11	0.95;
	151	1	0	0	0	0	1	0.417414245	-93.8624773	220	4	1.11	0.95;
	152	1	0	0	0	0	1	0.847082121	-75.965768	220	4	1.11	0.95;
	153	1	0	0	0	0	1	0.847082121	-75.965768	220	4	1.11	0.95;
	154	1	0	0	0	0	1	6.74752883	-187.835178	220	4	1.11	0.95;
	155	1	0	0	0	0	1	0.828990653	-0.502999846	220	5	1.11	0.95;
	156	1	0	0	0	0	1	23.6168838	9.50025102	220	5	1.11	0.95;
	157	1	0	0	0	0	1	0.0398057033	-213.646525	400	5	1.05	0.95;
	158	1	0	0	0	0	1	0.346948948	-101.374086	400	5	1.05	0.95;
	159	1	0	0	0	0	1	0.133399285	-236.390364	400	5	1.05	0.95;
	160	1	0	0	0	0	1	0.137254769	-96.0998098	400	5	1.05	0.95;
	161	1	0	0	0	0	1	4.66003686e-05	-199.908376	220	5	1.11	0.95;
	162	1	0	0	0	0	1	0.00780236093	70.9323487	220	5	1.11	0.95;
	163	1	0	0	0	0	1	0.0091851562	-4.96837085	220	5	1.11	0.95;
	164	1	0	0	0	0	1	0.0103086066	56.6708101	220	5	1.11	0.95;
	165	1	0	0	0	0	1	0.420323823	16.9677022	400	5	1.05	0.95;
	166	1	0	0	0	0	1	0.0635014416	-14.7867322	220	5	1.11	0.95;
	167	1	0	0	0	0	1	0.0347258821	13.0382393	220	5	1.11	0.95;
	168	1	0	0	0	0	1	0.0022620941	62.5141294	400	5	1.05	0.95;
	169	1	0	0	0	0	1	0.000435949089	62.9608496	400	5	1.05	0.95;
	170	1	0	0	0	0	1	0.00494676656	-208.568	220	5	1.11	0.95;
	171	1	0	0	0	0	1	0.0252054042	63.6819748	220	5	1.11	0.95;
	172	1	0	0	0	0	1	0.000248181355	-159.496931	220	5	1.11	0.95;
	173	1	0	0	0	0	1	2.5510559e-07	-263.74008	220	5	1.11	0.95;
	174	1	0	0	0	0	1	0.00535062899	-74.9012015	220	5	1.11	0.95;
	175	1	0	0	0	0	1	0.000236163079	-44.9801373	220	5	1.11	0.95;
	176	1	0	40	0	0	1	0.00476808565	-222.67062	400	5	1.05	0.95;
	177	1	0	40	0	0	1	0.103927052	-8.5390901	400	5	1.05	0.95;
	178	1	0	0	0	0	1	0.0120280621	-245.790103	220	5	1.11	0.95;
	179	1	0	0	0	0	1	0.0209030495	-92.7068976	220	5	1.11	0.95;
	180	3	339.85	49.6	0	0	2	1	-101.811105	400	6	1.05	0.95;
	181	2	0	0	0	0	3	1	-102.817606	220	6	1.11	0.95;
	182	2	0	0	0	0	5	1	14.7831633	400	6	1.05	0.95;
	183	1	150	0	0	0	3	0.170623372	-199.415533	400	6	1.05	0.95;
	184	2	317.34	50.3	0	0	2	1	-114.003157	220	6	1.11	0.95;
	185	2	362.43	36.7	0	0	2	1	32.0154494	400	6	1.05	0.95;
	186	1	33.33	1	0	0	5	2.53338363	14.6939062	220	6	1.11	0.95;
	187	1	7.12	1.5	0	0	1	0.882653906	-168.570647	110	1	1.12	0.95;
	188	1	7.63	1	0	0	1	0.0137992378	-27.3407639	110	1	1.12	0.95;
	189	1	9.77	8.7	0	0	1	0.0980559979	-195.393607	110	1	1.12	0.95;
	190	1	6.12	1.5	0	0	1	0.305765023	-181.366349	110	1	1.12	0.95;
	191	1	6.12	1.6	0	0	1	0.139835715	-82.6349335	110	1	1.12	0.95;
	192	1	30.56	12	0	0	1	0.613470234	-122.748609	110	1	1.12	0.95;
	193	1	15.28	3	0	0	1	0.092986702	-135.865816	110	1	1.12	0.95;
	194	1	0	0	0	0	1	1.15186436	31.3443046	110	1	1.12	0.95;
	195	1	8.14	2	0	0	1	0.910500315	-269.713817	110	1	1.12	0.95;
	196	1	6.92	1.5	0	0	1	0.0178467941	-133.818942	110	1	1.12	0.95;
	197	1	6.92	1.5	0	0	1	0.0981334433	-180.548472	110	1	1.12	0.95;
	198	1	12.32	1.7	0	0	1	2.24813264	-172.519742	110	1	1.12	0.95;
	199	1	1.43	0.5	0	0	1	1.31750299	83.445164	110	1	1.12	0.95;
	200	1	1.08	0.5	0	0	1	1.36508394	-252.960261	110	1	1.12	0.95;
	201	1	5.61	0.5	0	0	1	5.83898881	-84.9979959	110	1	1.12	0.95;
	202	1	18.34	2	0	0	1	3.64429922	-258.195575	110	1	1.12	0.95;
	203	1	11.1	1.6	0	0	1	8.03799535	78.4683069	110	1	1.12	0.95;
	204	1	0	0	0	0	1	0.196898387	-248.027221	110	1	1.12	0.95;
	205	1	6.92	2	0	0	1	0.00701962281	-18.1702502	110	1	1.12	0.95;
	206	1	11.2	1	0	0	1	1.59186002	-87.592446	110	1	1.12	0.95;
	207	1	7.32	1.6	0	0	1	0.00423791495	-122.098882	110	1	1.12	0.95;
	208	1	-7.32	-4.5	0	0	1	3.27934118	-216.161289	110	1	1.12	0.95;
	209	1	9.36	0.8	0	0	1	3.26136251	-154.723006	110	1	1.12	0.95;
	210	1	15.18	4.4	0	0	1	0.349285963	25.6586522	110	1	1.12	0.95;
	211	1	8.75	0.2	0	0	1	2.39355946	-96.9372001	110	1	1.12	0.95;
	212	1	10.18	1.5	0	0	1	2.62351164	39.4020675	110	1	1.12	0.95;
	213	1	-2.04	-1	0	0	1	17.8084432	-84.5410205	110	1	1.12	0.95;
	214	1	12.02	0.5	0	0	1	1.41468725	-193.963165	110	1	1.12	0.95;
	215	1	6.92	2	0	0	1	0.0186597297	-52.2409646	110	1	1.12	0.95;
	216	1	8.85	0.5	0	0	1	0.997922828	-38.2863997	110	1	1.12	0.95;
	217	1	1.94	0.4	0	0	1	24.0762354	-124.410144	110	1	1.12	0.95;
	218	1	12.22	1.5	0	0	1	0.140987973	-13.1804208	110	1	1.12	0.95;
	219	1	2.55	0.5	0	0	1	1.43564318	-79.6144803	110	1	1.12	0.95;
	220	1	2.55	0.5	0	0	1	0.656254527	-257.124174	110	1	1.12	0.95;
	221	1	4.08	0.5	0	0	1	0.599557325	-263.769726	110	1	1.12	0.95;
	222	1	6.53	0.4	0	0	1	1.43064373	62.5489691	110	1	1.12	0.95;
	223	1	18.65	4	0	0	1	0.100933623	-36.2500485	110	1	1.12	0.95;
	224	1	19.86	2.5	0	0	1	3.13136837	-238.445608	110	1	1.12	0.95;
	225	1	17.3	2	0	0	1	1.1011157	-43.8414263	110	1	1.12	0.95;
	226	1	24.44	1.5	0	0	1	0.0124121772	76.6909846	110	1	1.12	0.95;
	227	1	5.61	1	0	0	1	0.0359008603	-64.2856129	110	1	1.12	0.95;
	228	1	11.4	1.1	0	0	1	0.0278629363	-212.554501	110	1	1.12	0.95;
	229	1	11	2.7	0	0	1	0.0342263101	-106.95266	110	1	1.12	0.95;
	230	1	7.63	1	0	0	1	0.304232883	32.8060992	110	1	1.12	0.95;
	231	1	7.94	1.1	0	0	1	0.853341169	-187.879374	110	1	1.12	0.95;
	232	1	7.94	1.1	0	0	1	0.0813403189	49.5506566	110	1	1.12	0.95;
	233	1	1.84	0.8	0	0	1	13.5115977	82.2621993	110	1	1.12	0.95;
	234	1	33.46	28	0	0	1	0.0389292026	-28.1455576	110	1	1.12	0.95;
	235	1	33.76	28	0	0	1	0.0770826347	69.4547339	110	1	1.12	0.95;
	236	1	1.02	0.5	0	0	1	0.0208650592	-218.510731	110	1	1.12	0.95;
	237	1	13.95	1.7	0	0	1	0.0285810751	-43.3451035	110	1	1.12	0.95;
	238	1	9.98	1	0	0	1	0.0682482375	-122.937979	110	1	1.12	0.95;
	239	1	15.28	1.5	0	0	1	2.81029784	35.7733657	110	1	1.12	0.95;
	240	1	11.2	1.5	0	0	1	0.0750725226	-106.485455	110	1	1.12	0.95;
	241	1	10.18	3	0	0	1	0.103462502	52.1078791	110	1	1.12	0.95;
	242	1	1.22	0.1	0	0	1	0.39187416	-14.0968644	110	1	1.12	0.95;
	243	1	0	0	0	0	1	0.491152659	-45.4098659	110	1	1.12	0.95;
	244	1	1.02	0	0	0	1	0.237746416	-98.0619556	110	1	1.12	0.95;
	245	1	12.12	5.4	0	0	1	0.636365184	66.3041187	110	1	1.12	0.95;
	246	1	-8.14	-3.6	0	0	1	0.309917998	20.55025	110	1	1.12	0.95;
	247	1	11.2	1.5	0	0	1	0.138005602	-100.682417	110	1	1.12	0.95;
	248	1	3.06	0.5	0	0	1	1.00267406	-152.336672	110	1	1.12	0.95;
	249	1	9.16	0	0	0	1	0.180586595	54.0960493	110	1	1.12	0.95;
	250	1	27.71	3	0	0	1	0.0603388692	-221.819339	110	1	1.12	0.95;
	251	1	21.38	4	0	0	1	0.0261014989	26.8868899	110	1	1.12	0.95;
	252	1	21.38	4	0	0	1	0.687063785	-243.367918	110	1	1.12	0.95;
	253	1	14.87	4.3	0	0	1	0.0105031746	-237.547592	110	1	1.12	0.95;
	254	1	19.86	3.5	0	0	1	2.01720507	64.1107235	110	1	1.12	0.95;
	255	1	10.18	1	0	0	1	9.86977264	66.7296473	110	1	1.12	0.95;
	256	1	5.61	0	0	0	1	0.0967695972	48.0416974	110	1	1.12	0.95;
	257	1	7.12	0.2	0	0	1	10.8490789	-122.835972	110	1	1.12	0.95;
	258	1	4.08	0.3	0	0	1	0.295544547	-25.6310334	110	1	1.12	0.95;
	259	1	20.87	4.2	0	0	1	0.0595195614	-12.1579752	110	1	1.12	0.95;
	260	1	10.69	1.5	0	0	1	0.948076342	-203.682188	110	1	1.12	0.95;
	261	1	7.94	2	0	0	1	0.111974999	-274.058752	110	1	1.12	0.95;
	262	1	0.2	0	0	0	1	1.09888968	-15.1788278	110	1	1.12	0.95;
	263	1	5.3	1	0	0	1	1.05567808	-264.21079	110	1	1.12	0.95;
	264	1	12.22	1	0	0	1	1.54036887	-75.8514304	110	1	1.12	0.95;
	265	1	12.22	1	0	0	1	0.792377724	5.75488885	110	1	1.12	0.95;
	266	1	8.34	1.6	0	0	1	0.125087742	81.5067011	110	1	1.12	0.95;
	267	1	10.38	3	0	0	1	0.243021994	35.1931583	110	1	1.12	0.95;
	268	1	14.87	3.7	0	0	1	0.0120052193	-240.403341	110	1	1.12	0.95;
	269	1	15.28	4	0	0	1	0.723283298	-109.952079	110	1	1.12	0.95;
	270	1	3.67	0.5	0	0	1	0.00716542031	-109.748406	110	1	1.12	0.95;
	271	1	3.67	0.5	0	0	1	0.52401275	-19.5378612	110	1	1.12	0.95;
	272	1	9.26	3	0	0	1	0.0887309746	33.711985	110	1	1.12	0.95;
	273	1	12.93	3.7	0	0	1	0.00122250521	-270.382191	110	1	1.12	0.95;
	274	1	25.67	7.4	0	0	1	0.0840000475	75.3535716	110	1	1.12	0.95;
	275	1	23.22	6.7	0	0	1	0.0238542123	75.6864181	110	1	1.12	0.95;
	276	1	14.26	5.1	0	0	1	0.176013556	69.3901238	110	1	1.12	0.95;
	277	1	52.14	20.4	0	0	1	0.110459788	63.6866652	110	1	1.12	0.95;
	278	1	24.95	9.7	0	0	1	0.0454244136	-22.7355319	110	1	1.12	0.95;
	279	1	24.95	9.7	0	0	1	0.0824124889	-42.6182619	110	1	1.12	0.95;
	280	1	0	0	0	0	1	0.0301120634	-193.370125	110	1	1.12	0.95;
	281	1	30.66	11.9	0	0	1	0.024736629	-119.410339	110	1	1.12	0.95;
	282	1	13.14	5.1	0	0	1	0.0129456047	-75.0084521	110	1	1.12	0.95;
	283	1	17.02	0.2	0	0	1	2.75249127	11.6479266	110	1	1.12	0.95;
	284	1	2.55	0.5	0	0	1	5.86833452	-129.688556	110	1	1.12	0.95;
	285	1	8.14	1.5	0	0	1	1.33389214	-204.473886	110	1	1.12	0.95;
	286	1	29.75	4.1	0	0	1	0.0728737345	-108.096482	110	1	1.12	0.95;
	287	1	12.22	4	0	0	1	0.156150361	-37.7831929	110	1	1.12	0.95;
	288	1	13.14	3.8	0	0	1	0.0776237793	-243.029355	110	1	1.12	0.95;
	289	1	21.28	6.1	0	0	1	0.00310405871	70.7298982	110	1	1.12	0.95;
	290	1	17.32	3	0	0	1	2.75347096	-131.304849	110	1	1.12	0.95;
	291	1	16.81	5.4	0	0	1	0.0143619294	-265.209215	110	1	1.12	0.95;
	292	1	17.32	5	0	0	1	0.0115685567	-123.819453	110	1	1.12	0.95;
	293	1	7.43	2.1	0	0	1	0.0210804909	72.7284205	110	1	1.12	0.95;
	294	1	15.28	3	0	0	1	4.96143574	-266.095423	110	1	1.12	0.95;
	295	1	21.28	3.4	0	0	1	24.338629	-27.8829568	110	1	1.12	0.95;
	296	1	17.63	5.1	0	0	1	0.0393155053	-270.085675	110	1	1.12	0.95;
	297	1	8.55	2	0	0	1	0.781570383	-60.0618834	110	1	1.12	0.95;
	298	1	7.02	1.6	0	0	1	0.193235481	-212.37621	110	1	1.12	0.95;
	299	1	48.06	13.8	0	0	1	0.190541428	-122.239026	110	1	1.12	0.95;
	300	1	21.38	9	0	0	1	45.1840834	-155.620933	110	1	1.12	0.95;
	301	1	6.22	1.3	0	0	1	0.0390243778	-256.575618	110	1	1.12	0.95;
	302	1	6.12	1.3	0	0	1	7.4591521	-94.3983732	110	1	1.12	0.95;
	303	1	6.32	0.5	0	0	1	0.256930471	-62.9692527	110	1	1.12	0.95;
	304	1	17.83	5.1	0	0	1	0.0135520701	-171.569377	110	1	1.12	0.95;
	305	1	7.53	1.1	0	0	1	1.03246995	-5.54516397	110	1	1.12	0.95;
	306	1	21.38	4	0	0	1	0.499469349	-16.1294707	110	1	1.12	0.95;
	307	1	18.34	4	0	0	1	2.17837157	-34.6553677	110	1	1.12	0.95;
	308	1	5.1	0	0	0	1	6.30282653	-129.546919	110	1	1.12	0.95;
	309	1	0	0	0	0	1	0.790652593	-105.56892	110	1	1.12	0.95;
	310	1	0	0	0	0	1	1.65613831	-32.5881334	110	1	1.12	0.95;
	311	1	32.4	5.7	0	0	1	0.00200040546	-34.8224512	110	1	1.12	0.95;
	312	1	0	0	0	0	1	0.00758542498	33.103835	110	1	1.12	0.95;
	313	1	7.12	0.5	0	0	1	0.519821291	-132.102878	110	1	1.12	0.95;
	314	1	7.73	1.5	0	0	1	2.77238418	-142.206807	110	1	1.12	0.95;
	315	1	9.47	0	0	0	1	0.957026248	5.44922757	110	1	1.12	0.95;
	316	1	16.2	4	0	0	1	0.843221585	19.6381111	110	1	1.12	0.95;
	317	1	7.12	2	0	0	1	0.00247741407	-22.6106349	110	1	1.12	0.95;
	318	1	6.12	2	0	0	1	0.0377479941	-47.7913973	110	1	1.12	0.95;
	319	1	0.81	0.3	0	0	1	0.878844575	-218.288126	110	1	1.12	0.95;
	320	1	7.12	1	0	0	1	0.0547553838	-156.951219	110	1	1.12	0.95;
	321	1	0	0	0	0	1	0.0130953917	-67.7107884	110	1	1.12	0.95;
	322	1	0	0	0	0	1	2.95647523	71.6527939	110	1	1.12	0.95;
	323	1	9.98	1.8	0	0	1	2.17602463	-5.79850523	110	1	1.12	0.95;
	324	1	11.2	1.6	0	0	1	0.970717685	-167.844379	110	1	1.12	0.95;
	325	1	13.65	0.3	0	0	1	0.0206747783	-252.195208	110	1	1.12	0.95;
	326	1	6.62	1.2	0	0	1	0.7348544	21.7708315	110	1	1.12	0.95;
	327	1	4.08	0.1	0	0	1	44.1478839	30.2428456	110	1	1.12	0.95;
	328	1	45.83	23	0	0	1	0.000836206892	-27.8375401	110	1	1.12	0.95;
	329	1	45.83	23	0	0	1	0.0203642434	-243.366369	110	1	1.12	0.95;
	330	1	48.36	22	0	0	1	1.41508892	82.0000277	110	1	1.12	0.95;
	331	1	48.36	22	0	0	1	1.09171126	55.2467154	110	1	1.12	0.95;
	332	1	0	0	0	0	1	0.124829194	-192.587383	110	1	1.12	0.95;
	333	1	9.47	0.4	0	0	1	47.1553184	-75.4930086	110	1	1.12	0.95;
	334	1	16.81	0.7	0	0	1	4.66878838	-134.707637	110	1	1.12	0.95;
	335	1	4.08	1	0	0	1	2.01272893	-107.653446	110	1	1.12	0.95;
	336	1	0	0	0	0	1	0.778819642	-68.5227582	110	1	1.12	0.95;
	337	1	17.83	5.5	0	0	1	34.5880263	-128.682908	110	1	1.12	0.95;
	338	1	2.55	1.2	0	0	1	14.0357101	-234.478995	110	1	1.12	0.95;
	339	1	3.98	1.7	0	0	1	0.0516055834	-135.397862	110	1	1.12	0.95;
	340	1	11.2	1.5	0	0	1	0.29663581	-169.49272	110	1	1.12	0.95;
	341	1	11	0.1	0	0	1	15.4354082	-191.75229	110	1	1.12	0.95;
	342	1	16.3	1.6	0	0	1	4.65563567	-176.413067	110	1	1.12	0.95;
	343	1	1.02	0.5	0	0	1	16.9790076	82.6751756	110	1	1.12	0.95;
	344	1	13.24	5	0	0	1	15.2657662	-2.39317574	110	1	1.12	0.95;
	345	1	17.73	4	0	0	1	0.588646795	-18.9351574	110	1	1.12	0.95;
	346	1	18.34	13	0	0	1	34.4704213	-161.271898	110	1	1.12	0.95;
	347	1	8.14	4.5	0	0	1	19.2824183	-140.582242	110	1	1.12	0.95;
	348	1	2.04	0.5	0	0	1	0.0322520247	-142.9239	110	1	1.12	0.95;
	349	1	20.37	4.5	0	0	1	0.0235106182	-89.6034958	110	1	1.12	0.95;
	350	1	19.67	4.8	0	0	1	1.46652735	55.0304624	110	1	1.12	0.95;
	351	1	18.04	3.6	0	0	1	0.962294176	-132.999058	110	1	1.12	0.95;
	352	1	14.67	5.2	0	0	1	0.163725914	42.4318714	110	1	1.12	0.95;
	353	1	10.18	3.3	0	0	1	0.170384305	-128.738116	110	1	1.12	0.95;
	354	1	2.04	0.6	0	0	1	0.163970675	-157.711201	110	1	1.12	0.95;
	355	1	0	0	0	0	1	0.0560502145	-218.058415	110	1	1.12	0.95;
	356	1	2.96	0.6	0	0	1	6.19602994	-266.065019	110	1	1.12	0.95;
	357	1	2.04	0.1	0	0	1	1.4236382	-0.656994543	110	1	1.12	0.95;
	358	1	6.92	1.6	0	0	1	0.0131894108	-103.085423	110	1	1.12	0.95;
	359	1	3.57	1.2	0	0	1	0.288079231	-18.5503629	110	1	1.12	0.95;
	360	1	3.57	1.1	0	0	1	7.34074208	-87.8293168	110	1	1.12	0.95;
	361	1	0	0	0	0	1	0.566809112	-18.2295917	110	1	1.12	0.95;
	362	1	0	0	0	0	1	0.0631033169	-189.858549	110	1	1.12	0.95;
	363	1	6.12	1	0	0	1	13.4235204	-219.12365	110	1	1.12	0.95;
	364	1	-2.55	-0.8	0	0	1	4.48478386	-36.7378758	110	1	1.12	0.95;
	365	1	33.61	6.7	0	0	1	0.911438746	-192.05018	110	1	1.12	0.95;
	366	1	34.62	6.7	0	0	1	0.162803533	-97.3028929	110	1	1.12	0.95;
	367	1	12.02	1.6	0	0	1	4.21501018	-155.28029	110	1	1.12	0.95;
	368	1	10.18	1.5	0	0	1	0.101116254	-60.3259594	110	1	1.12	0.95;
	369	1	11.2	1.5	0	0	1	0.881929922	52.1770019	110	1	1.12	0.95;
	370	1	14.57	1.6	0	0	1	0.0344051301	-31.3126385	110	1	1.12	0.95;
	371	1	16.81	0.1	0	0	1	0.0334677927	-177.24014	110	1	1.12	0.95;
	372	1	12.83	1	0	0	1	0.015678175	65.7373546	110	1	1.12	0.95;
	373	1	2.24	0.2	0	0	1	0.0274609433	-226.918633	110	1	1.12	0.95;
	374	1	0	0	0	0	1	0.46847636	81.9586793	110	1	1.12	0.95;
	375	1	0	0	0	0	1	0.0263445001	-192.896053	110	1	1.12	0.95;
	376	1	25.16	5.4	0	0	1	0.155070785	52.9085461	110	1	1.12	0.95;
	377	1	9.16	2	0	0	1	7.9931539	-1.02191075	110	1	1.12	0.95;
	378	1	9.57	0.1	0	0	1	0.0202691407	-164.736525	110	1	1.12	0.95;
	379	1	24.95	1.4	0	0	1	6.64754061	-103.073783	110	1	1.12	0.95;
	380	1	7.63	1.7	0	0	1	0.00126619529	-253.632892	110	1	1.12	0.95;
	381	1	10.38	0.5	0	0	1	41.6341228	-113.502172	110	1	1.12	0.95;
	382	1	8.14	3	0	0	1	0.0105680217	-101.686624	110	1	1.12	0.95;
	383	1	22.4	4	0	0	1	0.0248192643	-69.5737711	110	1	1.12	0.95;
	384	1	14.26	3.5	0	0	1	0.479812584	-188.285194	110	1	1.12	0.95;
	385	1	21.89	6.5	0	0	1	0.214330166	-211.270823	110	1	1.12	0.95;
	386	1	12.73	2.5	0	0	1	15.0888386	-256.436789	110	1	1.12	0.95;
	387	1	14.87	1.2	0	0	1	34.5620599	-0.119483529	110	1	1.12	0.95;
	388	1	17.83	1.3	0	0	1	0.159449474	-43.4364312	110	1	1.12	0.95;
	389	1	11.2	2.5	0	0	1	1.53942034	-193.537629	110	1	1.12	0.95;
	390	1	12.02	3.5	0	0	1	0.136301515	66.0490461	110	1	1.12	0.95;
	391	1	5.2	1.5	0	0	1	0.752860729	-259.023919	110	1	1.12	0.95;
	392	1	11.4	2.6	0	0	1	0.391850236	-251.98827	110	1	1.12	0.95;
	393	1	8.75	0.4	0	0	1	0.0596615038	-268.621369	110	1	1.12	0.95;
	394	1	11.71	3.3	0	0	1	3.46379475	-190.438964	110	1	1.12	0.95;
	395	1	23.42	4.5	0	0	1	21.850582	-61.6233218	110	1	1.12	0.95;
	396	1	9.06	2.6	0	0	1	0.351165675	-86.6006709	110	1	1.12	0.95;
	397	1	4.18	1	0	0	1	0.298848056	18.6284825	110	1	1.12	0.95;
	398	1	9.16	2	0	0	1	0.127522674	-12.2020717	110	1	1.12	0.95;
	399	1	9.26	1.1	0	0	1	0.00715942513	-13.5443601	110	1	1.12	0.95;
	400	1	9.16	1	0	0	1	0.182953663	-96.1532972	110	1	1.12	0.95;
	401	1	12.22	-0.5	0	0	1	0.00198991539	-239.424129	110	1	1.12	0.95;
	402	1	4.28	0.9	0	0	1	0.0429434188	-238.04854	110	1	1.12	0.95;
	403	1	4.08	0.9	0	0	1	0.0788704651	-253.066588	110	1	1.12	0.95;
	404	1	12.02	3.1	0	0	1	0.659883129	-249.319028	110	1	1.12	0.95;
	405	1	5.41	0.7	0	0	1	1.05365279	42.2680937	110	1	1.12	0.95;
	406	1	9.06	2.4	0	0	1	0.299849795	64.5710791	110	1	1.12	0.95;
	407	1	20.11	4.9	0	0	1	0.00471570558	-32.6819018	110	1	1.12	0.95;
	408	1	8.85	1.1	0	0	1	0.216114314	-45.1042739	110	1	1.12	0.95;
	409	1	7.12	1.2	0	0	1	0.299850769	47.897892	110	1	1.12	0.95;
	410	1	9.47	2	0	0	1	0.273289157	-116.653227	110	1	1.12	0.95;
	411	1	18.85	2.1	0	0	1	0.239802622	-108.433324	110	1	1.12	0.95;
	412	1	7.63	1.3	0	0	1	2.38753395	-119.358235	110	1	1.12	0.95;
	413	1	20.77	1.6	0	0	1	1.3542581	76.2863429	110	1	1.12	0.95;
	414	1	5.1	0.5	0	0	1	0.0825104866	-158.901953	110	1	1.12	0.95;
	415	1	5.92	1.2	0	0	1	82.1874858	-140.78946	110	1	1.12	0.95;
	416	1	20.87	5	0	0	1	0.0404789073	-154.489103	110	1	1.12	0.95;
	417	1	2.65	0.3	0	0	1	0.0241882671	-37.408175	110	1	1.12	0.95;
	418	1	13.75	1.3	0	0	1	0.182882555	-191.092727	110	1	1.12	0.95;
	419	1	14.77	1.4	0	0	1	0.168336403	-144.514696	110	1	1.12	0.95;
	420	1	22.3	4.5	0	0	1	0.00161428079	-170.418965	110	1	1.12	0.95;
	421	1	14.26	0.8	0	0	1	1.78492095	-113.204537	110	1	1.12	0.95;
	422	1	14.26	0.8	0	0	1	0.655565631	-24.8227766	110	1	1.12	0.95;
	423	1	18.34	2	0	0	1	0.758440758	-24.4274296	110	1	1.12	0.95;
	424	1	12.63	4	0	0	1	0.558480708	22.0492653	110	1	1.12	0.95;
	425	1	33.92	4.2	0	0	1	11.3974445	-198.840083	110	1	1.12	0.95;
	426	1	16.81	4	0	0	1	0.317577166	-163.56358	110	1	1.12	0.95;
	427	1	18.04	2.1	0	0	1	0.0560436531	-204.767612	110	1	1.12	0.95;
	428	1	17.83	0	0	0	1	0.883931354	-254.169983	110	1	1.12	0.95;
	429	1	12.32	3.5	0	0	1	0.150512831	44.4155182	110	1	1.12	0.95;
	430	1	6.53	2	0	0	1	2.3476236	-22.9604497	110	1	1.12	0.95;
	431	1	6.22	1.5	0	0	1	0.00244455499	-13.5682934	110	1	1.12	0.95;
	432	1	3.37	0.2	0	0	1	15.3086004	-13.1225826	110	1	1.12	0.95;
	433	1	5.2	1	0	0	1	2.11394807	-101.852951	110	1	1.12	0.95;
	434	1	20.37	2.5	0	0	1	0.16365952	-263.466386	110	1	1.12	0.95;
	435	1	0.61	0.1	0	0	1	0.00337472914	-180.603294	110	1	1.12	0.95;
	436	1	0.51	0.1	0	0	1	0.0808863947	-206.886937	110	1	1.12	0.95;
	437	1	10.18	1	0	0	1	0.85458888	-57.7077493	110	1	1.12	0.95;
	438	1	6.22	0.2	0	0	1	0.0648154169	-183.557153	110	1	1.12	0.95;
	439	1	2.65	0.5	0	0	1	8.71696509	-122.781865	110	1	1.12	0.95;
	440	1	15.79	3.5	0	0	1	1.46163387	46.53154	110	1	1.12	0.95;
	441	1	16.61	4.8	0	0	1	0.00464879888	-103.619223	110	1	1.12	0.95;
	442	1	4.9	0	0	0	1	1.10751528	-14.4468686	110	1	1.12	0.95;
	443	1	13.75	2.1	0	0	1	0.0535009332	-214.058199	110	1	1.12	0.95;
	444	1	16.1	4.1	0	0	1	2.28028331	35.0263504	110	1	1.12	0.95;
	445	1	14.77	1.9	0	0	1	13.835455	-20.6715059	110	1	1.12	0.95;
	446	1	14.98	1.7	0	0	1	0.38861939	-268.847752	110	1	1.12	0.95;
	447	1	4.08	1	0	0	1	0.0401629075	-160.521918	110	1	1.12	0.95;
	448	1	4.79	2.4	0	0	1	1.16638957	-147.192885	110	1	1.12	0.95;
	449	1	0	0	0	0	1	12.109393	-265.739659	110	1	1.12	0.95;
	450	1	0	0	0	0	1	0.100577299	-84.4421245	110	1	1.12	0.95;
	451	1	9.16	4	0	0	1	0.0550852872	-6.17533199	110	1	1.12	0.95;
	452	1	4.08	2	0	0	1	0.0285643698	-4.45191337	110	1	1.12	0.95;
	453	1	9.16	0.5	0	0	1	1.84692064	-140.324441	110	1	1.12	0.95;
	454	1	21.38	6	0	0	1	0.0235055224	-251.392895	110	1	1.12	0.95;
	455	1	30.56	7	0	0	1	0.089051762	-170.596921	110	1	1.12	0.95;
	456	1	27.5	9	0	0	1	0.00148948449	82.6776767	110	1	1.12	0.95;
	457	1	28.52	9	0	0	1	0.426600437	-207.316832	110	1	1.12	0.95;
	458	1	7.12	3	0	0	1	0.491576056	-136.928096	110	1	1.12	0.95;
	459	1	7.12	1	0	0	1	0.0178666485	-45.0096076	110	1	1.12	0.95;
	460	1	10.79	1.2	0	0	1	0.0626545604	57.3859591	110	1	1.12	0.95;
	461	1	21.38	11	0	0	1	0.5509647	-70.8180533	110	1	1.12	0.95;
	462	1	39.72	10	0	0	1	0.821808967	39.1686372	110	1	1.12	0.95;
	463	1	27.5	10	0	0	1	0.465598819	-23.767571	110	1	1.12	0.95;
	464	1	21.38	8	0	0	1	0.0593268881	5.49215944	110	1	1.12	0.95;
	465	1	23.42	6	0	0	1	0.634527516	-117.507988	110	1	1.12	0.95;
	466	1	7.12	1	0	0	1	0.0680633824	8.42430892	110	1	1.12	0.95;
	467	1	61.09	20	0	0	1	0.0517467896	-10.3601315	110	1	1.12	0.95;
	468	1	30.56	10	0	0	1	0.00818085421	-46.7535268	110	1	1.12	0.95;
	469	1	7.63	1.4	0	0	1	0.00306826717	7.85575413	110	1	1.12	0.95;
	470	1	0	0	0	0	1	9.31024847e-05	68.0327025	110	1	1.12	0.95;
	471	1	20.17	6.5	0	0	1	0.00522067706	63.6114452	110	1	1.12	0.95;
	472	1	3.57	1.2	0	0	1	0.0100624375	-146.962519	110	1	1.12	0.95;
	473	1	4.08	2	0	0	1	26.7691782	-83.781007	110	1	1.12	0.95;
	474	1	4.08	0.5	0	0	1	1.33525851	74.3911041	110	1	1.12	0.95;
	475	1	22.4	6	0	0	1	0.19750104	-225.359131	110	1	1.12	0.95;
	476	1	9.16	2	0	0	1	0.141680903	-96.1974856	110	1	1.12	0.95;
	477	1	9.16	2	0	0	1	3.11716414	-120.863315	110	1	1.12	0.95;
	478	1	24.44	6	0	0	1	0.198379215	22.8546185	110	1	1.12	0.95;
	479	1	15.28	4	0	0	1	1.35925914	-219.358347	110	1	1.12	0.95;
	480	1	10.18	3	0	0	1	0.0186664587	-41.7289943	110	1	1.12	0.95;
	481	1	18.85	3.4	0	0	1	0.100801217	-48.6689135	110	1	1.12	0.95;
	482	1	31.07	2.6	0	0	1	2.49723281	-248.603815	110	1	1.12	0.95;
	483	1	36.66	9	0	0	1	0.00919867306	-189.3875	110	1	1.12	0.95;
	484	1	14.26	4	0	0	1	0.22324864	-188.20164	110	1	1.12	0.95;
	485	1	46.84	11	0	0	1	0.0151901485	-214.507901	110	1	1.12	0.95;
	486	1	11.2	4	0	0	1	0.483287006	-246.529288	110	1	1.12	0.95;
	487	1	12.83	1.1	0	0	1	0.0762060989	48.0745231	110	1	1.12	0.95;
	488	1	2	1	0	0	1	0.0226837371	4.16744509	110	1	1.12	0.95;
	489	1	22.4	5	0	0	1	0.162202449	-113.786637	110	1	1.12	0.95;