function mpc = case13659pegase_res
%CASE13659PEGASE_RES

%% MATPOWER Case Format : Version 2
mpc.version = '2';

%%-----  Power Flow Data  -----%%
%% system MVA base
mpc.baseMVA = 100;

%% bus data
%	bus_i	type	Pd	Qd	Gs	Bs	area	Vm	Va	baseKV	zone	Vmax	Vmin
mpc.bus = [
	1	3	0	0	0	0	0	1.031695	0	20	6	1.1	0.9;
	2	1	72.68	45	0	6.61	0	1.00250092	-11.2809612	150	9	1.1	0.9;
	3	1	378.4	98.5	0	16.61	0	0.991896481	-10.278601	220	6	1.1	0.9;
	4	1	134	19.1	0	0.08	0	1.00510605	9.42883882	154	1	1.1	0.9;
	5	1	151	48.8	0	4.69	0	0.99065501	5.44628237	220	5	1.1	0.9;
	6	1	171.41	23.4	0	2.1	0	1.00445873	21.1037196	220	5	1.1	0.9;
	7	1	45.95	14	0	13.34	0	0.979996386	-22.443429	220	6	1.1	0.9;
	8	1	343.4	53.1	0.70508	36.832433	0	1.02452575	-14.9955801	380	6	1.1	0.9;
	9	1	-0	-0	0	75.076713	0	0.995376879	12.2123399	380	5	1.1	0.9;
	10	1	31.03	10.3	0	0.65	0	0.935542915	-14.4716824	110	21	1.1	0.9;
	11	1	0	-0	0	3.41	0	1.03851426	0.501044124	154	1	1.1	0.9;
	12	2	0	0	0	0	0	1.004054	96.9410425	20	3	1.1	0.9;
	13	1	14.3	2	0	1.91	0	1.04625609	18.2440162	154	1	1.1	0.9;
	14	1	134	24.7	0	12.44	0	1.02915705	2.93770352	220	5	1.1	0.9;
	15	1	0	0	0	0	0	0.967333505	-11.9231445	150	9	1.1	0.9;
	16	1	-6.11	2	0	0.47	0	1.04840021	-7.09117893	150	9	1.1	0.9;
	17	1	-22.74	-8.32	0	6.5	0	1.01080672	-21.5446795	220	6	1.1	0.9;
	18	2	0	0	0	0	0	1.043087	9.90486386	20	14	1.1	0.9;
	19	1	59.67	26.7	0	12.84	0	1.02981792	-22.3912589	220	4	1.1	0.9;
	20	1	30.6	4.3	0	5.15	0	0.995807997	29.1425812	154	1	1.1	0.9;
	21	1	0	-0	0.234457	-0.195381	0	1.0244618	-14.1314702	380	6	1.1	0.9;
	22	1	67.67	12.1	0	2.18	0	1.012623	33.9843931	220	3	1.1	0.9;
	23	1	0	0	0.295874	20.603438	0	1.02325245	45.4788382	380	3	1.1	0.9;
	24	1	25.33	7.5	0	2.39	0	0.977846289	-13.9936079	110	12	1.1	0.9;
	25	1	1.4	0.2	0	4.93	0	1.01187776	29.6542817	154	1	1.1	0.9;
	26	1	161.2	39.3	0	30.71	0	1.03237606	5.33955927	220	5	1.1	0.9;
	27	1	0	-0	0	0.85	0	1.03239009	8.82103087	220	5	1.1	0.9;
	28	1	19.62	7.1	0	1.15	0	0.999412963	-5.24923711	110	19	1.1	0.9;
	29	2	0	0	0	0	0	1.033319	0.0992409514	20	18	1.1	0.9;
	30	1	31.94	8.8	0	0.73	0	1.01552438	-5.64370385	110	22	1.1	0.9;
	31	1	0	-0	0.235277	0.313936	0	1.02952555	40.1069089	220	3	1.1	0.9;
	32	1	167.3	54.8	0	110.54	0	1.0103685	24.7744671	380	5	1.1	0.9;
	33	2	0	0	0	0	0	1.018631	-12.8545588	20	4	1.1	0.9;
	34	1	-0	0	0	14.82	0	1.04982421	40.1015877	380	13	1.1	0.9;
	35	1	0	0	0	0	0	1.00983841	-11.7315264	150	9	1.1	0.9;
	36	1	152.9	49.4	0	27.65	0	0.983894279	13.5409339	380	5	1.1	0.9;
	37	1	-0	0	0	0.56	0	1.02808772	-10.1179296	150	9	1.1	0.9;
	38	1	69.68	43.2	0	6.3	0	0.918518704	-13.9020503	150	9	1.1	0.9;
	39	2	0	0	0	0	0	1.073284	-0.993809572	20	9	1.1	0.9;
	40	1	0	-0	0	37.54	0	1.00280336	-16.3738373	220	4	1.1	0.9;
	41	1	0	-0	0	0.25	0	1.02084564	-11.8512694	220	4	1.1	0.9;
	42	2	0	0	0	0	0	0.985213	25.6639325	11	1	1.1	0.9;
	43	1	13.51	4.9	0	1.8	0	1.02316409	-3.50176653	110	19	1.1	0.9;
	44	1	10.51	3.5	0	0.31	0	0.990883933	-12.2222403	110	12	1.1	0.9;
	45	2	0	0	0	0	0	1.012099	-20.1583793	20	4	1.1	0.9;
	46	1	-0	0	0.12	15.34	0	1.04062602	-0.0863003422	220	19	1.1	0.9;
	47	1	9.21	2.6	0	2	0	0.975606248	-7.71412649	110	18	1.1	0.9;
	48	1	42.75	12.8	0	13.3	0	1.05676203	52.9424447	220	8	1.1	0.9;
	49	1	-0	0	0.019959	0.320041	0	0.998827813	-11.6920182	150	10	1.1	0.9;
	50	1	16.02	4.54	0	0.1	0	0.983507059	-9.91457009	110	23	1.1	0.9;
	51	2	0	0	0	0	0	1.011416	41.5994983	14.4	1	1.1	0.9;
	52	1	27.9	4	0	4.23	0	0.988126214	13.2123284	154	1	1.1	0.9;
	53	1	20.82	7.9	0	26.89	0	1.01610368	-22.7503389	380	4	1.1	0.9;
	54	2	0	0	0	0	0	1.021005	21.8561862	20	14	1.1	0.9;
	55	1	0	0	0	7.27	0	1.03727434	5.07932934	220	5	1.1	0.9;
	56	1	10.11	3.7	0	0.81	0	1.04365732	-4.0124626	110	19	1.1	0.9;
	57	1	10.01	2.7	0	1.14	0	0.954269437	-7.65941298	110	18	1.1	0.9;
	58	1	6.31	-0	0	0.67	0	0.981117242	-5.94154983	110	18	1.1	0.9;
	59	1	2.9	0.9	0	0.6	0	1.03861489	-5.00846499	110	15	1.1	0.9;
	60	1	-0	0	0.318913	17.760815	0	1.00709569	-8.9555403	220	6	1.1	0.9;
	61	1	-0	-0	0.549745	0.432068	0	1.04743018	30.9209274	380	2	1.1	0.9;
	62	2	0	0	0	0	0	1.058268	13.5488791	20	5	1.1	0.9;
	63	2	0	0	0	0	0	1.058268	13.5488791	20	5	1.1	0.9;
	64	1	151.8	48.3	0	5.53	0	1.0085713	-21.4818121	220	4	1.1	0.9;
	65	1	127.6	31.8	0	20.51	0	0.999184174	27.1388748	150	8	1.1	0.9;
	66	2	0	0	0	0	0	1.034768	7.13322837	20	22	1.1	0.9;
	67	1	0	0	0	0.84	0	0.975761463	-7.37265042	110	21	1.1	0.9;
	68	2	0	0	0	0	0	1.035023	-12.0094134	20	4	1.1	0.9;
	69	2	0	0	0	0	0	1.035023	-12.0094134	20	4	1.1	0.9;
	70	1	110.5	-26.8	0	16.37	0	1.00864472	-8.23145133	220	6	1.1	0.9;
	71	1	-0	-0	0	0	0	1.02036092	12.0198974	20	5	1.1	0.9;
	72	1	-0	-0	0	0	0	1.02036092	12.0198974	20	5	1.1	0.9;
	73	1	0	0	0	1.23	0	0.994054633	36.7748411	220	3	1.1	0.9;
	74	1	0	-0	0	0	0	1.0250025	16.5110087	20	5	1.1	0.9;
	75	1	0	-0	0	0	0	1.0250025	16.5110087	20	5	1.1	0.9;
	76	1	0	-0	0	0	0	1.0250025	16.5110087	20	5	1.1	0.9;
	77	2	0	0	0	0	0	1.038344	8.86025477	20	5	1.1	0.9;
	78	2	0	0	0	0	0	1.027383	16.5455622	20	5	1.1	0.9;
	79	2	0	0	0	0	0	1.016716	23.4147554	20	5	1.1	0.9;
	80	1	140	79.7	0	6.5	0	1.00823836	10.4350079	220	3	1.1	0.9;
	81	1	21.6	3	0	3.54	0	0.990484083	12.1640284	154	1	1.1	0.9;
	82	1	0	-0	0	2.31	0	1.00485731	8.68885033	380	5	1.1	0.9;
	83	1	119.2	20.7	0	3.31	0	1.01717708	3.25275174	220	5	1.1	0.9;
	84	1	26.43	9.9	0	9.57	0	0.990370325	-14.6552313	110	22	1.1	0.9;
	85	1	0.24	-1.66	0	0.65	0	1.02456721	2.98853761	110	18	1.1	0.9;
	86	2	0	0	0	0	0	1.023881	-6.18022324	20	6	1.1	0.9;
	87	1	-0	0	0	0	0	1.01464978	-10.8292592	20	6	1.1	0.9;
	88	1	-0	0	0	0	0	1.01464978	-10.8292592	20	6	1.1	0.9;
	89	1	0	0	0	58.57	0	1.06703127	73.2652862	380	3	1.1	0.9;
	90	1	-0	0	0	1.34	0	0.965697991	-5.84728922	110	18	1.1	0.9;
	91	1	187.9	110.2	0	21.25	0	1.01030774	32.3018189	380	3	1.1	0.9;
	92	1	14.92	5.5	0	1.31	0	1.05638039	-2.72076187	110	15	1.1	0.9;
	93	1	-18.52	6.1	0	0.79	0	0.933013994	-12.4825882	150	9	1.1	0.9;
	94	2	0	0	0	0	0	1.022611	19.3974856	11	1	1.1	0.9;
	95	1	4.61	1.7	0	2.32	0	0.998122915	1.43702182	110	19	1.1	0.9;
	96	2	0	0	0	0	0	1.043225	-5.81031758	20	4	1.1	0.9;
	97	2	0	0	0	0	0	1.043225	-5.81031758	20	4	1.1	0.9;
	98	2	0	0	0	0	0	1.043225	-5.81031758	20	4	1.1	0.9;
	99	2	0	0	0	0	0	1.031885	-13.2532484	20	4	1.1	0.9;
	100	2	0	0	0	0	0	1.031885	-13.2532484	20	4	1.1	0.9;
	101	2	0	0	0	0	0	1.043225	-5.81031758	20	4	1.1	0.9;
	102	2	0	0	0	0	0	1.043225	-5.81031758	20	4	1.1	0.9;
	103	1	62.87	20.5	0	1.15	0	0.997076211	25.8766111	150	8	1.1	0.9;
	104	2	0	0	0	0	0	1.052257	46.7364832	20	3	1.1	0.9;
	105	1	13.5	14.8	0	132.435168	0	1.14236613	-1.3460766	380	9	1.2	0.8;
	106	1	126.3	42.4	0	55.24	0	1.04208733	30.4905305	150	8	1.1	0.9;
	107	2	0	0	0	0	0	1.028153	79.1414007	20	3	1.1	0.9;
	108	1	6.91	-4.6	0	5.75	0	1.02022299	-14.7420917	220	4	1.1	0.9;
	109	1	15.72	5.2	0	0.11	0	0.997966719	-14.3481713	110	12	1.1	0.9;
	110	2	0	0	0	0	0	1.051233	87.6660708	20	3	1.1	0.9;
	111	1	16.12	4.3	0	0.49	0	1.04070839	-3.30253448	110	23	1.1	0.9;
	112	1	38.74	6.1	0	1.17	0	1.01480236	-26.9923447	220	4	1.1	0.9;
	113	1	22.13	10.7	0	14.21	0	1.05681626	52.9521337	220	8	1.1	0.9;
	114	2	0	0	0	0	0	1.030832	-11.1014634	20	4	1.1	0.9;
	115	2	0	0	0	0	0	1.019	-4.28696447	20	10	1.1	0.9;
	116	1	0	-0	0	0.73	0	1.01574898	-24.0811381	220	4	1.1	0.9;
	117	1	0	0	0	0.83	0	0.982670561	0.912395737	110	18	1.1	0.9;
	118	1	138.8	136.7	0	8.76	0	1.00581953	41.2645125	380	3	1.1	0.9;
	119	1	137.3	66.4	0.174767	14.17407	0	1.04739436	-4.54535415	220	23	1.1	0.9;
	120	1	67.76	19.18	0	1.47	0	0.992228624	88.7570278	150	1	1.1	0.9;
	121	2	0	0	0	0	0	1.045359	8.16487508	20	14	1.1	0.9;
	122	1	0	-0	0	6.62	0	0.988607594	40.9361765	220	3	1.1	0.9;
	123	1	-0	-0	0	7.22	0	1.02607283	45.2255707	380	1	1.1	0.9;
	124	1	1	0.3	0	0.19	0	1.04640632	-3.23540887	110	19	1.1	0.9;
	125	1	20.9	3	0	5.74	0	0.97954694	40.5863536	154	1	1.1	0.9;
	126	1	0	0	0	0.12	0	1.05426086	-5.23171577	150	9	1.1	0.9;
	127	1	21.52	5.1	0	0.5	0	1.01598636	6.66278462	110	18	1.1	0.9;
	128	1	71.98	28.8	0	11	0	0.992512231	-5.82994131	220	6	1.1	0.9;
	129	1	0	0	0.205132	4.470744	0	0.998890628	23.7428382	380	2	1.1	0.9;
	130	1	363.25	115.39	0	3.95	0	1.03257821	-0.809936095	220	5	1.1	0.9;
	131	1	192.9	73.3	0	20.75	0	1.00912774	30.7633323	380	3	1.1	0.9;
	132	2	0	0	0	0	0	0.996117	29.1439219	11	1	1.1	0.9;
	133	2	0	0	0	0	0	1.042317	11.0585294	20	14	1.1	0.9;
	134	2	0	0	0	0	0	1.044129	-6.05028418	20	4	1.1	0.9;
	135	2	0	0	0	0	0	1.030832	-11.1014634	20	4	1.1	0.9;
	136	2	0	0	0	0	0	1.049674	86.9698868	20	3	1.1	0.9;
	137	1	17.52	6.3	0	0.26	0	1.03727462	0.232510173	110	19	1.1	0.9;
	138	1	33.14	12	0	0.65	0	0.998635588	-2.29170383	110	19	1.1	0.9;
	139	1	40.44	25	0	9.82	0	0.98279688	-10.8231985	150	9	1.1	0.9;
	140	1	193.17	53.37	0	4.58	0	1.00849583	11.9044792	220	5	1.1	0.9;
	141	1	90.7	25.5	0	3.11	0	1.08009255	24.6122001	220	3	1.2	0.8;
	142	1	176.3	-58.9	0	24.77	0	1.01014202	-1.76803224	380	6	1.1	0.9;
	143	1	35.94	22.3	0	0	0	1.04272115	-8.94562211	150	9	1.1	0.9;
	144	2	0	0	0	0	0	1.034631	6.54282727	20	14	1.1	0.9;
	145	2	0	0	0	0	0	1.040587	36.2084637	20	5	1.1	0.9;
	146	2	0	0	0	0	0	1.044313	35.0966066	20	5	1.1	0.9;
	147	2	0	0	0	0	0	1.044313	35.0966066	20	5	1.1	0.9;
	148	1	143.9	123.2	0	72.64	0	1.01403291	31.9704313	380	3	1.1	0.9;
	149	1	-0	-0	0	3.77	0	0.998766426	-24.1687613	220	6	1.1	0.9;
	150	1	-0	8.4	0	15.72	0	1.03576414	-8.68151417	150	9	1.1	0.9;
	151	2	0	0	0	0	0	1.023215	16.3515489	13.8	1	1.1	0.9;
	152	1	51.36	-8.8	0	2.15	0	0.956450778	-29.1292859	220	6	1.1	0.9;
	153	2	0	0	0	0	0	1.027348	17.9316054	20	14	1.1	0.9;
	154	2	0	0	0	0	0	1.05252	75.3435854	20	3	1.1	0.9;
	155	1	-0	-0	0	82.55	0	1.02069413	-7.28697226	380	6	1.1	0.9;
	156	2	0	0	0	0	0	1.034597	17.2149338	20	6	1.1	0.9;
	157	1	322.7	11.9	0	10.28	0	0.998575714	-13.9282081	380	6	1.1	0.9;
	158	1	303.6	79.8	0.019533	1.690467	0	1.03070727	11.6550362	220	5	1.1	0.9;
	159	1	3.8	1.3	0	0.4	0	1.00356231	5.27825496	110	18	1.1	0.9;
	160	1	137	19.5	0	4.9	0	1.00518199	9.89209669	154	1	1.1	0.9;
	161	2	0	0	0	0	0	1.034597	17.2149338	20	6	1.1	0.9;
	162	2	0	0	0	0	0	1.034597	17.2149338	20	6	1.1	0.9;
	163	1	0	0	0	0	0	0.999237584	-12.1038891	150	9	1.1	0.9;
	164	1	61.07	36	0	3.09	0	1.04197347	1.78746871	220	11	1.1	0.9;
	165	2	0	0	0	0	0	1.030832	-11.1014634	20	4	1.1	0.9;
	166	1	-0	0	0	3.24	0	1.06016972	17.3120496	220	3	1.1	0.9;
	167	1	0	0	0	6.520303	0	1.02522085	12.967446	380	5	1.1	0.9;
	168	1	55.7	7.9	0	4.21	0	0.982815675	33.2702361	154	1	1.1	0.9;
	169	1	0	0	0	4.21	0	1.04425097	7.44094841	220	5	1.1	0.9;
	170	1	1.8	0.7	0	0.3	0	0.968953896	-2.46236908	110	19	1.1	0.9;
	171	1	0	-0	0	0.71	0	1.00425712	-11.2027156	150	9	1.1	0.9;
	172	1	2.5	0	0	0.96	0	0.954231642	-7.8948419	110	18	1.1	0.9;
	173	1	0	0	0	0.09	0	1.07144455	-0.755928686	150	9	1.1	0.9;
	174	1	38.94	11	0	0.64	0	0.983011496	-11.2653619	110	1	1.1	0.9;
	175	1	45.15	14.1	0	0.19	0	1.05555775	-4.11094878	110	15	1.1	0.9;
	176	1	0	-0	0	5.75	0	0.994627564	35.80723	220	3	1.1	0.9;
	177	1	0	0	0.019004	4.360996	0	1.03998349	5.38347949	220	11	1.1	0.9;
	178	1	0	-0	0.566322	-0.241138	0	1.06629084	36.9435116	220	5	1.1	0.9;
	179	2	0	0	0	0	0	1.023144	-10.8091692	20	4	1.1	0.9;
	180	1	17.22	5.7	0	1.22	0	0.938902088	-10.1796342	110	21	1.1	0.9;
	181	1	-0	-0	0	0	0	1.02155543	10.4958146	20	14	1.1	0.9;
	182	2	0	0	0	0	0	1.054937	2.9524986	20	20	1.1	0.9;
	183	1	0	0	0	4.3	0	1.00620944	-1.18169899	220	6	1.1	0.9;
	184	1	23.73	12.7	0	0.52	0	1.02021314	11.2278322	220	5	1.1	0.9;
	185	1	121.9	7.4	0	1.34	0	1.01022698	14.7991547	220	3	1.1	0.9;
	186	1	0	-0	0.135375	47.750675	0	1.04319831	-20.8686752	380	10	1.1	0.9;
	187	1	47.35	16.4	0	4.08	0	1.02671938	-13.9061699	110	22	1.1	0.9;
	188	1	-0	0	0	0	0	1.02137983	-23.5826029	20	4	1.1	0.9;
	189	1	-0	-0	0	21.39	0	1.0431562	-17.385998	380	1	1.1	0.9;
	190	1	38.14	12.5	0	6.28	0	1.0069048	28.7982509	150	8	1.1	0.9;
	191	1	54.2	7.8	0	94.9	0	0.97382824	28.9864703	400	1	1.1	0.9;
	192	1	130.6	84.9	0	4.22	0	1.00769895	5.05875739	220	7	1.1	0.9;
	193	1	7.91	2.6	0	0.74	0	0.98295105	-11.9243502	110	12	1.1	0.9;
	194	1	42.1	74.61	0	37.58	0	0.983956797	89.0559162	150	1	1.1	0.9;
	195	1	-75.38	7.8	0	29.9	0	1.0589148	-15.4171773	380	10	1.1	0.9;
	196	2	0	0	0	0	0	1.021915	-11.2958645	20	6	1.1	0.9;
	197	2	0	0	0	0	0	1.005341	-3.25479059	20	4	1.1	0.9;
	198	1	41.05	14.3	0	11.53	0	1.00291581	-1.71566936	220	6	1.1	0.9;
	199	1	-0	-0	0	4.14	0	1.02991643	44.5918946	220	8	1.1	0.9;
	200	1	100.9	49.3	0.020067	4.329933	0	0.982030476	23.9665728	220	13	1.1	0.9;
	201	1	-0	0	0.116699	1.102475	0	1.03033183	-3.6826982	220	6	1.1	0.9;
	202	1	0	0	0	0	0	1.03282391	31.6904693	150	8	1.1	0.9;
	203	1	-0	0	0	2.03	0	1.02755606	17.5016424	220	5	1.1	0.9;
	204	1	-0	0	0	98.53	0	1.05665495	45.9733337	380	14	1.1	0.9;
	205	1	2.8	264.7	0.529803	56.537931	0	1.03258032	-13.5146624	380	4	1.1	0.9;
	206	1	38.34	5.6	0	7.64	0	1.02905025	19.0532944	220	5	1.1	0.9;
	207	2	0	0	0	0	0	1.016461	25.0831423	20	5	1.1	0.9;
	208	1	269.6	65.7	0	0	0	1.09465122	-0.743352571	120	20	1.2	0.8;
	209	1	-8.71	-19.54	0	0	0	1.04821987	44.2354065	150	8	1.1	0.9;
	210	1	160	3.3	0.076728	5.693272	0	1.04030338	13.8220859	220	7	1.1	0.9;
	211	1	32.34	12	0	6.1	0	1.0296551	20.1208081	220	5	1.1	0.9;
	212	1	100.1	45.1	0	1.11	0	1.00750618	-13.8180002	380	6	1.1	0.9;
	213	1	12.31	3.9	0.076917	5.053083	0	1.0478335	30.903846	220	5	1.1	0.9;
	214	1	131.75	24.35	0	4.48	0	1.029114	-2.68329014	154	1	1.1	0.9;
	215	1	0	0	0	107.29	0	0.965817096	21.4243008	400	1	1.1	0.9;
	216	1	0	-0	0	20.96	0	1.03698257	-16.352291	220	4	1.1	0.9;
	217	1	0	0	0	0.56	0	0.99925231	-3.05123702	150	7	1.1	0.9;
	218	1	0	0	0	1.29	0	0.996424967	-14.682485	110	12	1.1	0.9;
	219	1	0	-0	0	1.7	0	0.994378953	-5.84403793	110	21	1.1	0.9;
	220	2	0	0	0	0	0	1.055654	42.3578812	20	3	1.1	0.9;
	221	2	0	0	0	0	0	1.055654	42.3578812	20	3	1.1	0.9;
	222	2	0	0	0	0	0	1.051105	43.4791034	20	3	1.1	0.9;
	223	2	0	0	0	0	0	1.055654	42.3578812	20	3	1.1	0.9;
	224	2	0	0	0	0	0	1.051105	43.4791034	20	3	1.1	0.9;
	225	2	0	0	0	0	0	1.051105	43.4791034	20	3	1.1	0.9;
	226	1	9.21	3.3	0	1.2	0	1.00954626	7.84695193	110	19	1.1	0.9;
	227	1	0	-0	0.488616	70.580637	0	0.993974284	16.4528268	380	5	1.1	0.9;
	228	1	166	60.3	0	0.57	0	1.00545274	34.2470575	220	3	1.1	0.9;
	229	2	0	0	0	0	0	1.034441	34.3245169	20	10	1.1	0.9;
	230	1	-0	0	0	0.1	0	1.03051782	-8.96571652	150	9	1.1	0.9;
	231	1	79.4	11.3	0	4.92	0	1.01070742	23.3261902	154	1	1.1	0.9;
	232	1	0	0	0	0.16	0	1.09913943	-6.82747222	150	9	1.1	0.9;
	233	1	-0	-0	0	66.65	0	1.04105594	16.9537691	380	6	1.1	0.9;
	234	1	-597.44	-326.86	0	0	0	1.03531843	22.7379536	27	3	1.1	0.9;
	235	1	147.76	32.73	0	8.34	0	1.04736639	16.5709	220	5	1.1	0.9;
	236	1	0	-0	0	5.17	0	1.03000943	26.5678361	150	8	1.1	0.9;
	237	1	26.8	-3.7	0	51.261678	0	1.08046068	-4.85985346	380	9	1.1	0.9;
	238	1	-0	0	0.176128	3.073227	0	1.03138731	39.633957	220	3	1.1	0.9;
	239	1	257.5	131.1	0	1.08	0	1.02751451	22.5388496	220	3	1.1	0.9;
	240	1	16.7	2.4	0	6.09	0	0.994898191	35.6675271	154	1	1.1	0.9;
	241	2	0	0	0	0	0	1.037622	23.5635499	20	14	1.1	0.9;
	242	1	-0	-0	0	1.91	0	1.05420942	-8.42041995	150	9	1.1	0.9;
	243	2	0	0	0	0	0	1.053647	55.1786875	20	3	1.1	0.9;
	244	1	100.8	13.2	0	5.24	0	1.08352594	1.62592337	220	5	1.1	0.9;
	245	1	111.7	10.96	0	4.22	0	1.00591428	-20.6115177	220	4	1.1	0.9;
	246	1	90.38	-5.05	0	8.49	0	1.03811166	41.2854882	220	13	1.1	0.9;
	247	1	370.5	-17	0	9.91	0	1.04194424	-1.20326045	220	5	1.1	0.9;
	248	2	0	0	0	0	0	1.026279	26.7843483	20	10	1.1	0.9;
	249	1	41.05	-46	0.056872	19.253128	0	1.05641021	2.12607611	220	11	1.1	0.9;
	250	2	0	0	0	0	0	1.012099	-20.1583793	20	4	1.1	0.9;
	251	1	9.91	3.2	0	0.67	0	0.985917457	-16.0639866	110	12	1.1	0.9;
	252	1	-0.69	-5.46	0	5.07	0	1.05034171	-7.78351779	150	9	1.1	0.9;
	253	1	55.46	8.4	0	5	0	1.0152387	-28.5816174	220	4	1.1	0.9;
	254	1	94.9	36.2	0	16.46	0	0.962724512	-16.7950285	220	10	1.1	0.9;
	255	1	81.09	48	0	0.03	0	1.01781701	-10.8156279	150	9	1.1	0.9;
	256	1	0	0	0	113.7	0	1.08601088	6.51669989	380	18	1.2	0.8;
	257	1	210.4	159.2	0.100208	131.579896	0	1.01799957	-23.5692556	380	4	1.1	0.9;
	258	2	0	0	0	0	0	0.955439	45.8018717	10.6	1	1.1	0.9;
	259	2	0	0	0	0	0	1.03425	10.4457964	20	14	1.1	0.9;
	260	1	19.32	26	0	0.69	0	1.03665898	66.6387936	220	3	1.1	0.9;
	261	1	29.83	7.3	0	6.49	0	1.02585787	0.2340873	220	5	1.1	0.9;
	262	1	-0	-0	0	2.42	0	1.0369438	15.2847453	220	5	1.1	0.9;
	263	1	20.9	3	0	4.11	0	1.00777447	14.7610583	154	1	1.1	0.9;
	264	1	19.92	6.6	0	0.56	0	0.984040686	-8.7127992	110	21	1.1	0.9;
	265	1	57.16	2	0	1.48	0	0.979511709	-13.6622492	110	22	1.1	0.9;
	266	2	0	0	0	0	0	1.005915	-0.714590678	20	18	1.1	0.9;
	267	1	36.84	13.9	0	3.3	0	1.05250895	7.98766777	220	5	1.1	0.9;
	268	1	-15.04	-5.12	0	0.43	0	0.992639819	-5.65239155	110	18	1.1	0.9;
	269	1	9.21	6	0.060012	0.149988	0	0.99560575	0.140725454	110	19	1.1	0.9;
	270	2	0	0	0	0	0	1.003342	20.992984	10.6	1	1.1	0.9;
	271	2	0	0	0	0	0	1.053159	30.5183191	20	5	1.1	0.9;
	272	1	-0	0	0.114032	0.684974	0	1.0512266	93.3926418	380	3	1.1	0.9;
	273	2	0	0	0	0	0	1.051456	30.0800872	20	5	1.1	0.9;
	274	2	0	0	0	0	0	1.051088	30.0225104	20	5	1.1	0.9;
	275	2	0	0	0	0	0	1.051088	30.0225104	20	5	1.1	0.9;
	276	2	0	0	0	0	0	1.050379	29.882229	20	5	1.1	0.9;
	277	1	119.9	3.7	0	3.33	0	1.01853854	51.5955798	220	3	1.1	0.9;
	278	2	0	0	0	0	0	0.960771	41.614808	21	1	1.1	0.9;
	279	1	-0	-0	0.172756	-0.134366	0	1.03524943	40.076071	150	8	1.1	0.9;
	280	1	-0	0	0.039023	0.210733	0	1.02504041	-19.5960738	220	6	1.1	0.9;
	281	1	73.14	21.55	0	8.52	0	1.02791046	19.1503055	220	5	1.1	0.9;
	282	1	-0	-0	0	12.48	0	1.02592954	0.240667821	220	5	1.1	0.9;
	283	2	0	0	0	0	0	1.000621	16.1608635	11	1	1.1	0.9;
	284	1	0	-0	0.401208	101.317571	0	1.09328469	72.2234014	380	3	1.2	0.8;
	285	1	39.74	11.8	0	1.44	0	1.01715135	10.9712124	220	5	1.1	0.9;
	286	1	44.35	5.1	0	4	0	1.03268689	-20.3224986	220	4	1.1	0.9;
	287	1	86.8	28.4	0	1.34	0	0.995765339	27.377597	150	8	1.1	0.9;
	288	1	50.56	5.9	0	10.58	0	1.00711707	-16.7988473	220	4	1.1	0.9;
	289	2	0	0	0	0	0	1.040289	49.3689772	20	10	1.1	0.9;
	290	1	0	0	0	4.73	0	1.01752163	-25.1990719	220	4	1.1	0.9;
	291	1	110.9	32.7	0	15.4	0	1.01041504	25.3370817	220	14	1.1	0.9;
	292	1	18.2	2.6	0	12.38	0	0.996350331	36.910788	154	1	1.1	0.9;
	293	1	0	0	0.181549	14.690889	0	1.05101741	-1.66123664	220	18	1.1	0.9;
	294	2	0	0	0	0	0	0.999187	22.6274514	14.4	1	1.1	0.9;
	295	1	46.15	18.2	0	1.29	0	1.02994156	32.2675302	150	8	1.1	0.9;
	296	2	0	0	0	0	0	0.989117	30.5676618	6.3	1	1.1	0.9;
	297	1	55.46	15.7	0	13.46	0	1.02947418	-22.2424391	220	4	1.1	0.9;
	298	1	34.04	12.3	0	0.23	0	1.04234593	0.174505315	110	19	1.1	0.9;
	299	2	0	0	0	0	0	0.993468	41.5422141	11	1	1.1	0.9;
	300	1	321.98	84.4	0	1.34	0	1.01976535	13.6967383	220	5	1.1	0.9;
	301	1	42.55	8.2	0	2.06	0	1.03299638	3.76155796	220	5	1.1	0.9;
	302	1	33.44	10	0	1.36	0	1.01596859	-2.71244525	110	3	1.1	0.9;
	303	1	-0	0	0.019646	0.570354	0	0.996319089	-11.838972	110	12	1.1	0.9;
	304	2	0	0	0	0	0	1.037997	-17.0820906	20	4	1.1	0.9;
	305	2	0	0	0	0	0	1.030407	31.1983644	20	5	1.1	0.9;
	306	2	0	0	0	0	0	1.030407	31.1983644	20	5	1.1	0.9;
	307	2	0	0	0	0	0	1.049321	23.6133689	20	5	1.1	0.9;
	308	2	0	0	0	0	0	1.049321	23.6133689	20	5	1.1	0.9;
	309	2	0	0	0	0	0	1.05655	32.6457844	20	5	1.1	0.9;
	310	2	0	0	0	0	0	1.05655	32.6457844	20	5	1.1	0.9;
	311	2	0	0	0	0	0	1.05655	32.6457844	20	5	1.1	0.9;
	312	2	0	0	0	0	0	1.05655	32.6457844	20	5	1.1	0.9;
	313	1	-24.99	-4.94	0	6.99	0	1.08773123	70.813627	220	3	1.2	0.8;
	314	1	95.69	24.54	0	2.85	0	1.01670097	20.5965872	220	13	1.1	0.9;
	315	2	0	0	0	0	0	1.021202	4.62040786	6.3	1	1.1	0.9;
	316	1	37.34	10.9	0	0.63	0	0.980625112	-12.0931117	110	1	1.1	0.9;
	317	1	340	93.8	0.230291	74.777686	0	1.05028265	39.8914866	380	13	1.1	0.9;
	318	1	-0	0	0	2.04	0	1.05385432	-5.32235613	150	9	1.1	0.9;
	319	1	155.6	54.7	0	2.21	0	1.02635237	2.5822907	220	5	1.1	0.9;
	320	1	105.2	0.1	0	7.36	0	1.05228533	24.26596	220	5	1.1	0.9;
	321	1	69.83	15.12	0	2.23	0	1.02864846	14.0081558	220	5	1.1	0.9;
	322	1	-0	0	1.107693	6.867601	0	1.05403731	11.3943744	380	7	1.1	0.9;
	323	2	0	0	0	0	0	1.016993	28.9205257	20	5	1.1	0.9;
	324	2	0	0	0	0	0	1.024179	4.17826414	11	1	1.1	0.9;
	325	2	0	0	0	0	0	0.996355	25.8725253	6.3	1	1.1	0.9;
	326	1	-0	-0	0.197696	3.784535	0	1.00923455	7.62270043	380	5	1.1	0.9;
	327	1	176.2	20.8	0.019425	4.590288	0	1.02162418	91.9608861	150	1	1.1	0.9;
	328	2	0	0	0	0	0	1.023168	22.811314	20	10	1.1	0.9;
	329	1	27.03	8.8	0	1.84	0	1.01690015	1.19124017	110	21	1.1	0.9;
	330	1	0	-0	0	0.28	0	0.977728009	-5.06912788	150	6	1.1	0.9;
	331	2	0	0	0	0	0	1.006233	13.2497981	13.8	1	1.1	0.9;
	332	2	0	0	0	0	0	0.996766	19.5604312	6.3	1	1.1	0.9;
	333	1	-0	0	0	1.15	0	1.04113848	7.03328426	220	5	1.1	0.9;
	334	1	0	-0	0	0	0	1.0174972	-16.2866626	20	4	1.1	0.9;
	335	1	14.62	4.8	0	1.02	0	0.997402446	-9.78558154	110	12	1.1	0.9;
	336	2	0	0	0	0	0	1.010862	-11.68801	20	4	1.1	0.9;
	337	1	0	-0	0	0	0	1.0174972	-16.2866626	20	4	1.1	0.9;
	338	2	0	0	0	0	0	1.00038	-7.13712961	20	4	1.1	0.9;
	339	1	-0	0	0	0	0	1.00827811	-11.8051928	20	4	1.1	0.9;
	340	1	45.05	-2.2	0	3.96	0	1.0181982	-17.4001884	220	4	1.1	0.9;
	341	1	0	-0	0	2.55	0	1.02145465	5.73757473	220	7	1.1	0.9;
	342	1	-23.43	57.4	0	0	0	1.06481067	19.5202136	150	2	1.1	0.9;
	343	1	426.6	93.7	0	80.94	0	1.02742802	0.344898665	380	6	1.1	0.9;
	344	1	152.07	22.52	0	7.87	0	0.990880894	-20.5012827	220	4	1.1	0.9;
	345	2	0	0	0	0	0	1.030395	-7.57704921	20	4	1.1	0.9;
	346	2	0	0	0	0	0	1.030395	-7.57704921	20	4	1.1	0.9;
	347	1	0	0	0	0.7	0	1.01704273	-4.31943785	150	9	1.1	0.9;
	348	1	2.5	3.8	0	0.15	0	0.952109313	-6.50141535	110	18	1.1	0.9;
	349	1	30.53	10.9	0.589029	2.678252	0	1.02098584	12.112961	220	19	1.1	0.9;
	350	1	34.04	4.4	0	1.25	0	0.969248341	-16.4429391	110	22	1.1	0.9;
	351	2	0	0	0	0	0	1.024484	-7.89335286	20	6	1.1	0.9;
	352	1	45.85	7	0	1.05	0	1.01336789	-28.0273606	220	4	1.1	0.9;
	353	1	-0	0	0	30.97	0	1.03680029	65.7975899	380	3	1.1	0.9;
	354	2	0	0	0	0	0	1.029166	14.1254837	20	14	1.1	0.9;
	355	1	46.05	16.9	0.03829	0.29171	0	1.04528366	-3.26520624	110	19	1.1	0.9;
	356	1	0	0	0	0	0	1.028694	-10.4369891	150	9	1.1	0.9;
	357	1	0	0	0	3.95	0	1.04914348	86.3124936	220	3	1.1	0.9;
	358	2	0	0	0	0	0	1.050725	41.7206157	20	10	1.1	0.9;
	359	1	-876.96	-325.87	0	0	0	1.04350966	30.349673	27	3	1.1	0.9;
	360	2	0	0	0	0	0	1.028641	-18.962565	20	4	1.1	0.9;
	361	2	0	0	0	0	0	1.028641	-18.962565	20	4	1.1	0.9;
	362	2	0	0	0	0	0	1.028641	-18.962565	20	4	1.1	0.9;
	363	2	0	0	0	0	0	1.028641	-18.962565	20	4	1.1	0.9;
	364	2	0	0	0	0	0	1.00564	-11.9526924	20	4	1.1	0.9;
	365	2	0	0	0	0	0	0.997585	1.74689375	15.75	1	1.1	0.9;
	366	1	167.9	18.2	0	5.97	0	1.05635473	24.2905853	220	3	1.1	0.9;
	367	1	0	-0	0	13.49	0	1.02486513	44.0546962	150	8	1.1	0.9;
	368	2	0	0	0	0	0	1.028641	-18.962565	20	4	1.1	0.9;
	369	2	0	0	0	0	0	1.028641	-18.962565	20	4	1.1	0.9;
	370	1	-0	-0	0	0.68	0	1.00859683	32.3050793	150	8	1.1	0.9;
	371	1	44.35	14.8	0	1.94	0	0.977455699	-9.93288896	110	21	1.1	0.9;
	372	1	131.9	31.1	0.457733	14.047628	0	1.04465064	0.220070921	220	1	1.1	0.9;
	373	1	0	-0	0	0.72	0	0.987235518	-1.94247907	110	18	1.1	0.9;
	374	1	224.2	73.9	0.039171	84.090829	0	1.02536418	37.8380098	380	13	1.1	0.9;
	375	1	-0	0	0	26.3	0	1.00212426	-16.3707997	220	4	1.1	0.9;
	376	1	128.9	73.7	0	25.37	0	1.03057762	46.7759351	380	3	1.1	0.9;
	377	1	0	-0	0	0	0	0.994399693	-13.8869313	20	22	1.1	0.9;
	378	1	0	-0	0	0	0	0.994399693	-13.8869313	20	22	1.1	0.9;
	379	1	-0	-0	0	13.85	0	1.04524457	37.1897844	380	3	1.1	0.9;
	380	1	118.4	16.9	0	8.02	0	0.987499695	32.3030689	154	1	1.1	0.9;
	381	1	0	0	0	0	0	0.990203283	-10.3177869	20	22	1.1	0.9;
	382	2	0	0	0	0	0	0.990596	-5.44632204	20	22	1.1	0.9;
	383	2	0	0	0	0	0	1.012482	-9.14763448	20	22	1.1	0.9;
	384	1	0	0	0	0	0	0.990203283	-10.3177869	20	22	1.1	0.9;
	385	1	-0	-0	0	2.66	0	1.04251457	74.3125623	220	3	1.1	0.9;
	386	1	-0	0	0	4.06	0	1.02953064	5.16948157	220	1	1.1	0.9;
	387	1	0	0	0.135493	12.74062	0	1.05652325	-3.56644636	380	21	1.1	0.9;
	388	1	-0	0	0.276837	2.240894	0	1.06157983	10.02434	380	16	1.1	0.9;
	389	1	-0	-0	0	7.09	0	1.02478311	-6.12696471	220	6	1.1	0.9;
	390	1	113.9	24.5	0	6.72	0	1.01134019	-19.7254005	220	4	1.1	0.9;
	391	1	88	12.6	0	22.25	0	1.02439941	-3.67462802	154	1	1.1	0.9;
	392	2	0	0	0	0	0	1.030636	-1.27498731	6.3	1	1.1	0.9;
	393	1	42.67	12.1	0	14.84	0	1.02305969	-13.1566756	150	9	1.1	0.9;
	394	2	0	0	0	0	0	1.0326	6.3684259	20	14	1.1	0.9;
	395	2	0	0	0	0	0	1.028283	18.2774167	20	14	1.1	0.9;
	396	2	0	0	0	0	0	1.029542	-5.39974576	20	6	1.1	0.9;
	397	1	0	-0	0	1.29	0	1.04328814	-19.3058517	380	10	1.1	0.9;
	398	1	-0	-0	0	9.41	0	1.06436669	3.22462036	220	18	1.2	0.8;
	399	1	160.8	10.6	0.039515	21.960485	0	1.01302486	35.618399	220	13	1.1	0.9;
	400	2	0	0	0	0	0	0.979015	40.523756	10.3	1	1.1	0.9;
	401	1	126.8	21.4	0	11.43	0	1.01533438	-27.9479935	220	4	1.1	0.9;
	402	1	48.8	6.9	0	3.11	0	1.00423475	22.5959727	154	1	1.1	0.9;
	403	1	38.74	9	0	0.57	0	1.02009654	-20.4501162	220	4	1.1	0.9;
	404	1	350.4	29.3	0	19.31	0	1.03657452	-1.23273743	220	11	1.1	0.9;
	405	2	0	0	0	0	0	1.00773	-7.35386912	20	2	1.1	0.9;
	406	2	0	0	0	0	0	1.00773	-7.35386912	20	2	1.1	0.9;
	407	1	103.8	2.7	0	3.33	0	1.01180564	-25.2964139	220	4	1.1	0.9;
	408	2	0	0	0	0	0	1.043492	-16.8531032	20	4	1.1	0.9;
	409	1	-0.13	-1	0	0	0	1.07873013	53.0814848	220	8	1.1	0.9;
	410	1	0	-0	0	0.66	0	1.00136098	-14.4078568	110	22	1.1	0.9;
	411	1	0	0	0	6.34	0	1.04310134	93.8960331	380	1	1.1	0.9;
	412	1	96.7	26.8	0	0	0	1.05351471	19.0703723	150	2	1.1	0.9;
	413	1	0	0	0	19.54	0	1.06768083	-12.4157277	150	9	1.1	0.9;
	414	1	-0	-0	0	14.87	0	1.04049778	-5.60555913	220	23	1.1	0.9;
	415	1	0	0	0	0	0	0.989844472	-14.5042871	150	9	1.1	0.9;
	416	1	19.02	6	0	0.25	0	0.995876448	-4.08663312	110	21	1.1	0.9;
	417	1	102.1	25.3	0	1.11	0	1.0006944	28.2937998	150	8	1.1	0.9;
	418	1	-0	0	0	2.44	0	1.0504891	90.9363798	220	3	1.1	0.9;
	419	1	0	0	0	0	0	1.02073994	-9.23806803	150	9	1.1	0.9;
	420	1	113.3	30.2	0.039525	2.140475	0	1.00459899	-5.14278909	110	18	1.1	0.9;
	421	1	8.31	3	0	0.99	0	1.03170792	-3.88111491	110	19	1.1	0.9;
	422	1	119.6	29.6	0	5.34	0	1.0358429	16.2258913	220	5	1.1	0.9;
	423	2	0	0	0	0	0	1.015919	0.713458874	6.3	1	1.1	0.9;
	424	1	-0	0	0	18.07	0	1.04101	40.3302941	380	8	1.1	0.9;
	425	1	49.9	144	1.091586	80.060431	0	1.07945263	9.30609431	380	18	1.2	0.8;
	426	1	27.33	11.9	0	1.17	0	1.0282837	15.0257554	220	5	1.1	0.9;
	427	1	191.2	-3.4	0	19.21	0	1.02955729	-22.4414221	220	4	1.1	0.9;
	428	1	-0	-0	0.028663	18.318528	0	1.02699954	93.8791825	380	1	1.1	0.9;
	429	1	101.6	14.5	0	1.94	0	0.998914666	26.9048615	154	1	1.1	0.9;
	430	1	177.1	66.9	0	71.03	0	1.06056299	9.28480713	380	16	1.1	0.9;
	431	1	0	-0	0	0.3	0	1.06949418	-0.677107526	150	9	1.1	0.9;
	432	2	0	0	0	0	0	1.016602	17.2172734	6.3	1	1.1	0.9;
	433	2	0	0	0	0	0	1.011489	7.75024364	20	23	1.1	0.9;
	434	1	0	-0	0.038538	-0.028903	0	1.03749103	-3.85613915	220	6	1.1	0.9;
	435	1	53.46	18.7	0	1.64	0	1.03144355	3.59539895	220	20	1.1	0.9;
	436	1	0	-0	0	12.73	0	1.02318104	30.084589	220	14	1.1	0.9;
	437	1	344.7	-31.1	0	39.129841	0	1.02909279	-0.0487499431	380	6	1.1	0.9;
	438	2	0	0	0	0	0	1.016716	23.4147554	20	5	1.1	0.9;
	439	1	-0	-0	0	1.98	0	1.02041425	79.2101101	220	3	1.1	0.9;
	440	1	85.1	67	0	0.18	0	1.07700168	-1.83935046	150	9	1.1	0.9;
	441	1	0	0	0	0	0	1.02531248	10.8212335	20	5	1.1	0.9;
	442	2	0	0	0	0	0	1.043357	14.8936301	20	5	1.1	0.9;
	443	1	-0	0	0	0.08	0	1.0040001	-1.60067086	220	6	1.1	0.9;
	444	1	189.3	76.7	0	3.24	0	1.00674562	53.3925276	220	3	1.1	0.9;
	445	1	23.73	9.4	0	1.45	0	1.04171634	31.7448195	150	8	1.1	0.9;
	446	1	10.01	-21	0	8.59	0	1.02327434	-4.31902013	220	11	1.1	0.9;
	447	1	-0	-0	0	0	0	1.02036092	12.0198974	20	5	1.1	0.9;
	448	2	0	0	0	0	0	1.038795	15.2821137	20	5	1.1	0.9;
	449	1	228.1	131.8	0.95374	3.934956	0	1.02771055	-20.0560907	380	4	1.1	0.9;
	450	1	-0	-0	0	1.05	0	1.02120285	-2.97051815	150	9	1.1	0.9;
	451	1	-14.85	-4.95	0	0.37	0	1.00247545	-2.47982036	110	18	1.1	0.9;
	452	1	20.9	3	0	2.65	0	1.0130226	30.5671862	154	1	1.1	0.9;
	453	1	431.7	121.6	0	1.14	0	0.98501196	-5.23526653	220	21	1.1	0.9;
	454	2	0	0	0	0	0	0.973833	16.6945826	20	5	1.1	0.9;
	455	1	17.62	7.7	0	0.59	0	0.988614214	-13.2699311	110	22	1.1	0.9;
	456	1	0	0	0	109.27	0	1.04599062	-15.9802915	380	4	1.1	0.9;
	457	1	103	12	0	0.63	0	1.030046	-6.325714	220	5	1.1	0.9;
	458	2	0	0	0	0	0	1.009892	2.61609867	20	9	1.1	0.9;
	459	1	0	0	0	4.76	0	1.03160142	8.5966017	220	5	1.1	0.9;
	460	1	0	0	0	25.85	0	1.07826272	-0.0441771835	380	1	1.2	0.8;
	461	1	0	0	0	0	0	0.87267075	-17.6012564	150	9	1.2	0.8;
	462	1	0	-0	0.060508	3.079577	0	0.9966405	40.3989683	220	3	1.1	0.9;
	463	2	0	0	0	0	0	1.126642	-3.1753583	380	9	1.2	0.8;
	464	1	42.05	17.2	0	1.31	0	1.0318062	26.1904824	150	8	1.1	0.9;
	465	1	-0.16	-2.91	0	0.43	0	1.04702849	38.341016	110	8	1.1	0.9;
	466	1	0	-0	0	0.06	0	1.00769645	28.9519352	154	1	1.1	0.9;
	467	1	163.1	46.3	0	10.6	0	1.01109635	11.160407	220	5	1.1	0.9;
	468	1	0	-0	0	2.13	0	1.02006808	-9.87605886	220	10	1.1	0.9;
	469	1	-0	-0	0	2.81	0	1.05860193	22.0212738	220	3	1.1	0.9;
	470	2	0	0	0	0	0	1.046905	30.2811053	20	2	1.1	0.9;
	471	1	0	0	0.049626	-1.990412	0	1.04519871	30.6051987	380	2	1.1	0.9;
	472	1	-0	-0	0	1.05	0	1.00078967	-11.8350645	150	9	1.1	0.9;
	473	1	153.3	21.8	0	18.25	0	1.02803371	-1.1680938	154	1	1.1	0.9;
	474	1	-0	0	0	141.93	0	0.970638082	31.7788193	400	1	1.1	0.9;
	475	1	67.17	-23.9	0	0.93	0	1.05133592	90.7118576	220	3	1.1	0.9;
	476	2	0	0	0	0	0	1.029484	52.7611721	20	10	1.1	0.9;
	477	2	0	0	0	0	0	1.043087	9.90486386	20	14	1.1	0.9;
	478	1	-0	0	0.114166	11.294861	0	1.06320168	79.6346535	380	3	1.1	0.9;
	479	1	382.4	86.3	0	22.29	0	1.02334856	2.47958234	220	11	1.1	0.9;
	480	2	0	0	0	0	0	1.033425	27.8773622	20	6	1.1	0.9;
	481	2	0	0	0	0	0	1.033425	27.8773622	20	6	1.1	0.9;
	482	2	0	0	0	0	0	1.033425	27.8773622	20	6	1.1	0.9;
	483	2	0	0	0	0	0	1.033425	27.8773622	20	6	1.1	0.9;
	484	1	33.5	4.8	0	5.48	0	1.01646478	18.6298461	154	1	1.1	0.9;
	485	2	0	0	0	0	0	1.059619	5.38848904	20	18	1.1	0.9;
	486	1	0.01	-0	0	0	0	1.07909782	53.1269796	220	8	1.1	0.9;
	487	1	0	0	0	12.29	0	1.01077626	14.3618807	380	3	1.1	0.9;
	488	1	291.5	51.3	0.244436	12.636488	0	1.00355919	50.2872197	220	13	1.1	0.9;
	489	1	24.23	7.1	0	1.64	0	0.98837133	-5.47832616	110	21	1.1	0.9;
	490	1	108.6	2.6	0	31.8	0	1.04280828	37.7783101	380	3	1.1	0.9;
	491	1	4	2.4	0	0.03	0	0.984715198	-10.2739907	150	9	1.1	0.9;
	492	2	0	0	0	0	0	1.041985	31.0325867	20	10	1.1	0.9;
	493	1	30.03	10.9	0	1.45	0	1.00678476	-5.25368976	110	19	1.1	0.9;
	494	1	0	0	0	45.39	0	1.12002042	-1.4295754	380	15	1.2	0.8;
	495	1	524.5	43	0	6.85	0	0.99196391	-16.1071845	220	5	1.1	0.9;
	496	2	0	0	0	0	0	1.00876	-0.563375136	20	18	1.1	0.9;
	497	1	129.9	18.5	0	0.38	0	1.01572286	13.7784511	154	1	1.1	0.9;