function mpc = case1951rte_resqlim
%CASE1951RTE_RESQLIM

%% MATPOWER Case Format : Version 2
mpc.version = '2';

%%-----  Power Flow Data  -----%%
%% system MVA base
mpc.baseMVA = 100;

%% bus data
%    bus_i    type    Pd    Qd    Gs    Bs    area    Vm    Va    baseKV    zone    Vmax    Vmin
mpc.bus = [
    1    1    36.4    19.5    0    0    1    1.04154429    -18.7551454    225    1    1.08889    0.888889;
    2    1    0    0    0    0    1    1.08105808    -5.17675396    380    1    1.10263    1.04841;
    3    1    245.2    16.4    0    0    1    1.06558763    -23.6205654    225    1    1.08444    1.00444;
    4    1    0    0    0    0    1    1.07514411    -8.37293565    150    1    1.10667    0.9;
    5    1    51.8    13.5    0    0    1    1.0700516    -11.7034655    225    1    1.08889    0.933333;
    6    1    36.6    11.6    0    0    1    1.06759654    -12.7501238    225    1    1.08889    0.933333;
    7    1    0    0    0    0    1    1.08496    -10.6502959    380    1    1.10526    1.03947;
    8    1    0    0    0    0    1    1.0803236    -12.003236    380    1    1.10526    1.03947;
    9    1    0    0    0    0    1    1.07710814    -28.5361268    225    1    1.09035    1.00444;
    10    1    193.4    48.9    0    0    1    1.03571747    -15.9308508    225    1    1.08889    0.933333;
    11    1    57.7    14.6    0    0    1    1.0628089    -29.5266585    225    1    1.08889    1.00444;
    12    1    27.8    24.4    0    0    1    1.07583489    -25.120224    225    1    1.08889    1.00444;
    13    1    177.5    52.5    0    0    1    1.06259596    -29.5286021    225    1    1.08889    1.00444;
    14    1    75.8    7.3    0    0    1    1.05843405    -15.7220027    225    1    1.08252    0.95;
    15    1    0    0    0    0    1    1.08790536    -14.1139914    225    1    1.08889    1.00444;
    16    1    0    0    0    0    1    1.08790578    -14.1139942    225    1    1.08889    1.00444;
    17    1    66.2    0.9    0    0    1    1.05908909    -15.5947421    225    1    1.08889    0.888889;
    18    1    12.3    7.1    0    0    1    1.07267207    -3.32238254    225    1    1.09633    0.986667;
    19    1    67.9    23    0    0    1    1.0471034    -26.5128989    225    1    1.08889    1.00444;
    20    1    29.2    7.2    0    0    1    1.04716867    -26.5100928    225    1    1.08889    1.00444;
    21    1    77.8    31.2    0    0    1    1.06070641    -26.4616796    225    1    1.08889    1.00444;
    22    1    105.6    22.8    0    0    1    1.04605747    -11.4363758    225    1    1.08889    0.986667;
    23    1    41.1    2.7    0    0    1    1.04573768    -15.6046893    225    1    1.08889    0.888889;
    25    1    56.2    8.1    0    0    1    1.05852702    -29.2253894    225    1    1.08444    1.00889;
    26    1    29.3    6.4    0    0    1    1.05886148    -29.1776891    225    1    1.08444    1.00889;
    27    1    102.1    38    0    0    1    1.04965375    -14.6467989    225    1    1.08889    0.933333;
    28    1    172.1    40    0    0    1    1.0656523    -25.8689244    225    1    1.08889    1.00444;
    29    1    0    0    0    0    1    1.08114225    -5.16499044    380    1    1.10526    1.04842;
    30    1    0    0    0    0    1    1.08118524    -5.16903417    380    1    1.10526    1.04842;
    31    1    36.2    31.7    0    0    1    1.06369311    -10.0195786    225    1    1.08444    1.00889;
    33    1    133.2    20.1    0    0    1    1.06631603    -17.6721931    225    1    1.08444    1.00889;
    34    1    89.4    29.6    0    0    1    1.02442019    -27.4165052    225    1    1.08889    1.00444;
    2013    1    0    0    0    0    1    1.06401095    -29.3445953    225    1    1.08889    1.00444;
    35    1    10.3    -0.4    0    0    1    1.06616372    -14.146649    150    1    1.08    0.966667;
    36    1    22.3    6.7    0    80    1    1.04288304    -21.0585085    225    1    1.09212    1;
    37    1    0    0    0    0    1    1.0513056    -17.7650023    380    1    1.10526    1.04785;
    38    1    144.2    18.9    0    0    1    1.01358602    -15.7493192    225    1    1.08889    0.986667;
    39    1    117.8    31.5    0    0    1    1.06018274    -15.3907637    225    1    1.08889    0.968889;
    40    1    194.8    53.6    0    0    1    1.07696447    -12.214274    380    1    1.10526    1;
    41    1    64.7    12.6    0    0    1    1.05174087    -14.0930447    225    1    1.08889    0.933333;
    42    1    44.6    15.6    0    0    1    1.05629715    -13.9271179    225    1    1.08889    0.888889;
    43    1    46.9    11.7    0    0    1    1.05644891    -13.9324464    225    1    1.08889    0.888889;
    44    1    381.3    62.5    0    0    1    1.06909962    -32.0955328    225    1    1.08496    1.00444;
    45    1    161.5    -38.5    0    0    1    1.06612722    -28.5721228    225    1    1.08889    1.00444;
    46    1    0    0    0    0    1    1.10664609    -18.072141    150    1    1.10843    0.9;
    47    1    0    0    0    0    1    1.05352577    -26.656572    225    1    1.08889    1.00444;
    48    1    0    0    0    0    1    1.05352555    -26.6565708    225    1    1.08889    1.00444;
    49    1    123.5    43.4    0    0    1    1.05352429    -26.6565639    225    1    1.08889    1.00444;
    50    1    10    3.7    0    0    1    1.0657382    -26.4389314    225    1    1.08889    1.00444;
    51    1    0    0    0    0    1    1.05732677    -20.4833181    225    1    1.08889    1;
    52    1    74.6    28    0    0    1    1.04134048    -16.3166646    225    1    1.08889    0.888889;
    53    1    160.2    38.2    0    0    1    1.06972558    -8.49575771    225    1    1.08889    0.968889;
    54    1    0    0    0    0    1    1.08889767    -4.63657942    380    1    1.10526    1;
    55    1    31    11    0    0    1    1.06417472    -16.1152564    225    1    1.08444    1.00889;
    56    1    14.7    -1    0    0    1    1.06450447    -16.0996841    225    1    1.08444    1.00889;
    1827    1    201.2    11.7    0    0    1    1.05482224    -30.9974622    225    1    1.08889    1.00444;
    57    1    57    3    0    0    1    1.08019859    -17.7332658    225    1    1.08945    0.933333;
    58    1    0    0    0    0    1    1.10588056    -18.1778396    150    1    1.10862    0.9;
    59    1    55.4    19.7    0    0    1    1.07767774    -15.7938737    225    1    1.08444    1.00889;
    60    1    55.7    41.6    0    0    1    1.07733545    -15.790722    225    1    1.08444    1.00889;
    61    1    0    0    0    0    1    1.07484777    -16.0253991    225    1    1.08889    0.977778;
    62    1    16.4    4.9    0    0    1    1.05698823    -13.1623793    225    1    1.08889    0.888889;
    63    1    1.6    12.7    0    0    1    1.07828977    -12.634102    225    1    1.08889    0.933333;
    64    1    29.7    12    0    0    1    1.074398    -25.4168568    225    1    1.08889    1.00444;
    65    1    54.7    13.6    0    0    1    1.07651381    -28.6243979    225    1    1.08889    1.00444;
    66    1    -21.9    -5.1    0    0    1    1.05824324    -20.6901763    225    1    1.08889    1;
    67    1    29.2    -2.5    0    0    1    1.07586538    -19.7482012    225    1    1.08889    0.986667;
    68    1    0    0    0    80    1    1.06445199    -13.6967736    225    1    1.08889    0.888889;
    69    1    0    0    0    0    1    1.04916623    -15.1009444    225    1    1.08889    0.888889;
    70    1    0    0    0    0    1    1.07331399    -10.0979115    380    1    1.10526    1.01316;
    71    1    76.3    14.3    0    0    1    1.04641519    -26.7084899    225    1    1.08889    1.00444;
    72    1    29    5    0    0    1    1.06702058    -25.5719476    225    1    1.08889    1.00444;
    73    1    0    0    0    0    1    1.05517999    -11.349061    225    1    1.08889    0.977778;
    74    1    0    0    0    0    1    1.05518998    -11.3483961    225    1    1.08889    0.977778;
    75    1    182.4    31.2    0    0    1    1.05239109    -12.1839592    225    1    1.08444    1.00889;
    76    1    0    0    0    0    1    1.07806244    -27.9004754    225    1    1.08444    1.00444;
    77    1    0    0    0    0    1    1.09683385    -21.8527282    380    1    1.10263    1.04211;
    78    1    116.1    17.6    0    0    1    1.07772146    -27.9599376    225    1    1.08444    1.00444;
    79    1    -7.4    0.9    0    0    1    1.07684659    -24.9534086    225    1    1.08936    1.00444;
    80    1    14    12.6    0    0    1    1.07671289    -24.9636854    225    1    1.08936    1.00444;
    81    1    48.7    2.9    0    0    1    1.08186452    -5.91042313    225    1    1.08889    0.888889;
    82    1    27.9    3.3    0    0    1    1.0494432    -16.197788    225    1    1.08124    0.95;
    83    1    61.9    19.7    0    0    1    1.07161353    -7.24066792    225    1    1.08889    0.888889;
    84    1    158.1    -16.5    0    0    1    1.03486563    -22.1954497    225    1    1.08889    1;
    85    1    0    0    0    0    1    1.02499286    -16.8486301    225    1    1.08889    1;
    86    1    403.7    124.8    0    0    1    1.06294366    -16.7929043    380    1    1.10526    1.0507;
    87    1    108.6    44.4    0    0    1    1.03678957    -17.2891042    225    1    1.08889    1;
    88    1    140.7    36.8    0    0    1    1.05524803    -20.9579076    225    1    1.08889    1;
    89    3    0    0    0    0    1    1.042    -21.4067707    150    1    1.1    0.9;
    90    1    56.6    23.2    0    0    1    1.02852499    -17.4455482    225    1    1.08889    0.986667;
    91    1    12.5    6.1    0    0    1    1.06097107    -10.0031754    225    1    1.08444    1.00889;
    92    1    0    0    0    0    1    1.09627324    -10.2700154    380    1    1.10526    1.04211;
    93    1    0    0    0    0    1    1.09625819    -10.3355865    380    1    1.10526    1.04211;
    96    1    12.7    0.6    0    0    1    1.03893207    -21.2449897    225    1    1.08889    1;
    97    1    18.3    11.1    0    0    1    1.0596605    -26.3357191    225    1    1.08889    1.00444;
    98    1    90.8    9.6    0    0    1    1.08911645    -20.3344608    150    1    1.1    0.9;
    99    1    82.1    -2.6    0    0    1    1.06157032    -19.5720723    225    1    1.08889    1;
    100    2    1.3    0    0    0    1    1.047    -26.5577063    225    1    1.08294    0.95;
    101    1    0    0    0    0    1    1.06995032    -11.5978551    225    1    1.08889    0.933333;
    102    1    0    0    0    0    1    1.08052954    -11.924343    380    1    1.10526    1.03947;
    103    1    0    0    0    0    1    1.08506453    -10.5867642    380    1    1.10526    1.03947;
    104    1    0    0    0    0    1    1.06316869    -29.5040245    225    1    1.08889    1.00444;
    1828    1    86.9    24.6    0    0    1    1.02237916    -27.6931347    225    1    1.08889    1.00444;
    105    1    0    0    0    0    1    1.01431963    -8.31503446    225    1    1.08889    0.986667;
    106    1    12.8    7.6    0    0    1    1.06301103    -29.5133042    225    1    1.08889    1.00444;
    107    1    150.1    27.1    0    0    1    1.05744924    -16.7264199    225    1    1.08889    0.933333;
    108    1    0    0    0    0    1    1.08758289    -13.0877873    380    1    1.10526    1.03947;
    109    1    32.1    -1.6    0    0    1    1.05215038    -19.417221    225    1    1.08889    1;
    110    1    29.4    1.2    0    0    1    1.06425234    -27.642225    225    1    1.08986    1.00444;
    111    1    131.9    2.8    0    0    1    1.04753265    -21.435273    225    1    1.09612    1;
    112    1    174.9    55.6    0    0    1    1.0480893    -6.09157215    225    1    1.08889    0.986667;
    113    1    129.6    33.2    0    0    1    1.07713413    -28.5292023    225    1    1.09036    1.00444;
    114    1    245.6    120.6    0    0    1    1.03177509    -16.9871253    225    1    1.08889    0.924444;
    115    1    82.1    14.7    0    0    1    1.09225757    -2.04830617    225    1    1.09614    0.986667;
    117    1    0    0    0    0    1    1.09379903    -0.727755285    380    1    1.10526    1.03947;
    119    1    192    -29.8    0    0    1    1.0604626    -44.1161729    225    1    1.08444    1.00444;
    120    1    21.6    -16.9    0    0    1    1.06080251    -27.7917709    225    1    1.08444    1.00889;
    121    1    0    0    0    0    1    1.05501171    -24.8212587    380    1    1.10263    1.02895;
    122    1    -0.1    -4.2    0    0    1    1.05800562    -16.7328351    225    1    1.08889    0.933333;
    123    1    172.6    37.2    0    0    1    1.05308316    -14.5118262    225    1    1.08889    0.933333;
    124    1    31.9    29.8    0    0    1    0.985363939    -27.6784487    63    1    1.07937    0.920635;
    125    2    0    0    0    0    1    1.075    -11.1769691    225    1    1.07476    0.95;
    126    1    4.4    5.3    0    0    1    1.062506    -12.613834    225    1    1.09768    1;
    127    1    0    0    0    0    1    1.06161579    -12.4427352    380    1    1.10526    1.05263;
    128    1    0    0    0    0    1    1.06167459    -12.4395988    380    1    1.10526    1.05263;
    129    1    0    0    0    0    1    1.06167422    -12.4360615    380    1    1.10526    1.05263;
    130    1    0    0    0    0    1    1.06167835    -12.4515691    380    1    1.10526    1.05263;
    131    1    0    0    0    0    1    1.09276307    -1.93042064    225    1    1.09645    0.986667;
    132    1    0    0    0    0    1    1.0931571    -1.88619765    225    1    1.09645    0.986667;
    133    1    0    0    0    0    1    1.09419382    -0.651562086    380    1    1.10526    1.03947;
    134    1    123.5    26.5    0    0    1    1.04657676    -17.4024119    225    1    1.08889    0.968889;
    135    1    39.1    10.1    0    0    1    1.05862259    -29.1603616    225    1    1.08444    1.00889;
    136    1    4.4    -3.3    0    0    1    1.09285544    -14.4372757    380    1    1.10526    1.03947;
    137    1    166.9    46.7    0    0    1    1.06621526    -13.5878608    225    1    1.08889    0.933333;
    138    1    0    0    0    0    1    1.0882627    -8.65600544    380    1    1.10526    1.03947;
    140    1    202    20.2    0    0    1    1.06348561    -7.7869717    225    1    1.08444    1.00889;
    142    1    231.3    -18.3    0    0    1    1.06376517    -21.3961822    225    1    1.08444    1.00444;
    143    1    49.3    7.8    0    0    1    1.0649414    -14.3161864    225    1    1.08889    0.933333;
    144    1    40.6    10.3    0    0    1    1.06492788    -14.31606    225    1    1.08889    0.933333;
    145    1    49.8    -6.2    0    0    1    1.06431083    -27.6288046    225    1    1.08952    1.00444;
    146    1    0    0    0    0    1    1.08361777    -15.618935    225    1    1.09478    1;
    147    1    0    0    0    0    1    1.08361578    -15.6189131    225    1    1.09478    1;
    148    1    68.7    4.5    0    0    1    1.03697112    -21.6752018    225    1    1.08889    1;
    149    1    30    -1.5    0    0    1    1.07012206    -22.6481553    225    1    1.08889    1.00444;
    150    1    52.2    3.9    0    0    1    1.05699124    -10.5259107    225    1    1.08444    1.00889;
    151    1    40.2    6.8    0    0    1    1.03017289    -22.9155161    225    1    1.08889    1;
    152    1    0    0    0    0    1    1.06803976    -18.9879194    225    1    1.08444    1.00889;
    153    1    0    0    0    0    1    1.06792493    -18.9978983    225    1    1.08444    1.00889;
    154    1    0    0    0    0    1    1.06866926    -13.7745261    225    1    1.08444    1.00889;
    155    1    0    0    0    0    1    1.06757925    -10.884721    380    1    1.10263    1.02895;
    156    1    165.9    38.2    0    0    1    1.07126568    -6.96706548    225    1    1.08889    0.888889;
    157    1    0    0    0    0    1    1.06251763    -12.6135949    225    1    1.09766    1;
    158    1    0    0    0    0    1    1.06158015    -12.5166749    380    1    1.10526    1.05263;
    159    1    37.1    -0.1    0    0    1    1.06926359    -20.6040287    225    1    1.08889    0.986667;
    160    1    17.9    14.6    0    0    1    1.0512347    -20.1442047    225    1    1.08889    1;
    161    1    0    0    0    0    1    1.06391328    -47.441446    225    1    1.08444    1.00444;
    162    1    0    0    0    0    1    1.06391328    -47.441446    225    1    1.08444    1.00444;
    163    1    0    0    0    0    1    1.06392074    -47.4416429    225    1    1.08444    1.00444;
    164    1    96.9    -7.4    0    0    1    1.06391223    -47.4414183    225    1    1.08444    1.00444;
    165    1    0    0    0    0    1    1.04927743    -14.6767254    225    1    1.08889    0.933333;
    166    1    8.5    -5.2    0    0    1    1.05572568    -18.02427    225    1    1.08889    0.986667;
    167    1    0    0    0    0    1    1.07936489    -15.5142129    225    1    1.08941    1;
    168    1    0    0    0    0    1    1.10077967    -13.6024603    380    1    1.10526    1.05263;
    169    2    0    0    0    0    1    1.065    -10.5249219    225    1    1.1    0.9;
    170    1    13    4    0    0    1    1.06383954    -14.2880382    150    1    1.08    0.966667;
    171    1    50.4    4.5    0    0    1    1.04775722    -26.3296854    225    1    1.08889    1.00444;
    172    1    0.4    0.6    0    0    1    1.04808289    -26.2470062    225    1    1.08889    1.00444;
    173    1    29.1    -7.9    0    0    1    1.07510271    -7.60835347    225    1    1.08889    0.888889;
    175    1    0    0    0    0    1    1.08947896    -15.1170648    225    1    1.09176    1;
    176    1    0    0    0    0    1    1.08946397    -15.1211228    225    1    1.09176    1;
    177    1    0    0    0    0    1    1.08946244    -15.1223442    225    1    1.09176    1;
    178    1    0    0    0    0    1    1.08946191    -15.1225765    225    1    1.09176    1;
    179    1    0    0    0    0    1    1.08947739    -15.1173251    225    1    1.09176    1;
    180    1    0    0    0    0    1    1.10268999    -12.5515716    380    1    1.10676    0.9;
    181    1    181.5    39.9    0    0    1    1.03038456    -22.8822804    225    1    1.08889    1;
    182    1    32    21.4    0    0    1    1.03335218    -7.53237796    225    1    1.08889    0.986667;
    183    1    0    0    0    0    1    1.10471737    -6.95885894    380    1    1.10526    1.03947;
    184    1    0    0    0    0    1    1.10476202    -6.86156369    380    1    1.10526    1.03947;
    185    1    0    0    0    0    1    1.10475502    -6.86499296    380    1    1.10526    1.03947;
    186    1    0    0    0    0    1    1.10465982    -6.96864901    380    1    1.10526    1.03947;
    187    1    65.9    23.3    0    0    1    1.04724644    -14.2642917    225    1    1.08889    0.924444;
    188    1    5.4    1.4    0    0    1    1.01775737    -15.7272414    225    1    1.08889    0.986667;
    189    1    101.7    -4.3    0    0    1    1.06132745    -37.4676645    225    1    1.08444    1.00444;
    190    1    -6.8    -0.2    0    0    1    1.10180435    -9.26483199    380    1    1.10263    1.04211;
    191    1    -5.3    -0    0    0    1    1.10179778    -9.28180545    380    1    1.10263    1.04211;
    192    1    0    0    0    0    1    1.04457634    -26.9859705    225    1    1.08889    1.00444;
    193    1    0    0    0    0    1    1.05679078    -11.6979011    225    1    1.08889    0.977778;
    194    1    0    0    0    0    1    1.05679078    -11.6979011    225    1    1.08889    0.977778;
    195    1    135.5    19.2    0    0    1    1.04444636    -18.3401444    225    1    1.08889    0.968889;
    196    1    0    0    0    0    1    1.04943203    -8.47223362    225    1    1.08889    0.933333;
    197    1    0    0    0    0    1    1.04835561    -8.8356974    225    1    1.08889    0.933333;
    198    1    98.9    26.5    0    0    1    1.05652666    -34.7787552    225    1    1.08444    1.00444;
    199    1    299.2    -25.2    0    0    1    1.06310473    -31.7611939    225    1    1.08444    1.00444;
    200    1    0    0    0    0    1    1.06607155    -14.3997019    225    1    1.08889    0.977778;
    201    1    0    0    0    0    1    1.08282899    -20.932469    225    1    1.08444    1.00444;
    202    1    211.2    31    0    0    1    1.04119738    -18.9915028    225    1    1.08889    0.951111;
    203    1    89.7    19.5    0    0    1    1.06681646    -25.4529807    225    1    1.08889    1.00444;
    204    1    92.2    26    0    0    1    1.01822283    -15.8825596    225    1    1.08889    0.986667;
    205    1    29.6    2.7    0    0    1    1.05432906    -28.4756697    225    1    1.08444    1.00889;
    206    1    0    0    0    0    1    1.05415256    -25.9310484    380    1    1.10263    1.02895;
    207    1    127    40.5    0    0    1    1.06657011    -25.7678853    225    1    1.08889    1.00444;
    1829    2    0    0    0    0    1    1.054    -14.5258223    225    1    1.07859    0.95;
    208    1    0    0    0    0    1    1.05398757    -14.525918    225    1    1.08889    0.888889;
    209    1    310.2    64.5    0    80    1    1.06557402    -35.7486569    225    1    1.08444    1.00444;
    210    1    62.1    16.8    0    0    1    1.07486095    -2.9989948    225    1    1.09504    0.986667;
    211    1    91.9    12.1    0    0    1    1.064773    -18.205865    225    1    1.08444    1.00889;
    212    1    26.8    -0.9    0    0    1    1.06623424    -17.6859397    225    1    1.08444    1.00889;
    213    1    133    16.9    0    0    1    1.04504677    -9.83481715    225    1    1.08889    0.933333;
    215    1    0    0    0    0    1    1.10119284    -3.38699866    380    1    1.10526    1.03947;
    216    1    95.1    16.3    0    0    1    1.07640243    -11.851206    380    1    1.10526    1.03947;
    217    1    0    0    0    0    1    1.04736206    -9.15586621    225    1    1.08889    0.933333;
    218    1    0    0    0    0    1    1.04635179    -9.41319004    225    1    1.08889    0.933333;
    219    1    34.4    10.1    0    0    1    1.07940812    -15.7472908    225    1    1.08444    1.00889;
    220    1    2.2    3.5    0    0    1    1.07960992    -15.7175194    225    1    1.08444    1.00889;
    221    1    -7.5    -7.3    0    0    1    1.06841673    -16.6155528    225    1    1.08444    1.00889;
    222    1    85.2    17.1    0    0    1    1.06401419    -26.0959789    225    1    1.08889    1.00444;
    223    1    38.1    1.2    0    0    1    1.06488849    -18.1518768    225    1    1.08444    1.00889;
    224    1    21.4    -2.1    0    0    1    1.06537758    -18.109148    225    1    1.08444    1.00889;
    225    1    7    3.7    0    0    1    1.0640914    -13.6586588    150    1    1.10667    0.946667;
    1830    1    0    0    0    0    1    1.06262758    -45.1469538    225    1    1.08444    1.00444;
    226    1    0    0    0    0    1    1.06953035    -40.3951092    380    1    1.10263    1.04211;
    227    1    180.4    -2    0    0    1    1.05138387    -20.8328128    225    1    1.09795    1;
    228    1    0    0    0    0    1    1.05246357    -18.3654134    380    1    1.10526    1.05019;
    229    1    127.1    31    0    0    1    1.05722393    -13.7414952    225    1    1.08889    0.911111;
    230    1    0    0    0    0    1    1.08286001    -6.27188482    380    1    1.10526    1;
    231    1    44.4    13.2    0    0    1    1.0631366    -29.5083517    225    1    1.08889    1.00444;
    232    1    49    11.1    0    0    1    1.02249712    -27.6848035    225    1    1.08889    1.00444;
    233    1    23.8    0.4    0    0    1    1.07197239    -20.1271149    225    1    1.08889    0.986667;
    234    1    0.4    0.5    0    0    1    1.07217008    -20.0547208    225    1    1.08889    0.986667;
    235    1    4    1    0    0    1    1.07600753    -27.7606334    225    1    1.08889    1.00444;
    236    1    30.4    23.5    0    0    1    1.0751282    -27.7956648    225    1    1.08889    1.00444;
    237    1    249.6    70    0    0    1    1.03478885    -24.9461322    225    1    1.08889    1.00444;
    238    1    0    0    0    0    1    1.04134595    -23.618143    225    1    1.08889    1.00444;
    239    1    56.5    14.2    0    0    1    1.07254614    -29.0764117    225    1    1.08889    1.00444;
    240    1    58.6    15.7    0    0    1    1.0719198    -29.1230193    225    1    1.08889    1.00444;
    241    2    -50    0.8    0    0    1    1.00170985    -10.7241635    20    1    1.1    0.9;
    242    1    0    0    0    0    1    1.07152544    -16.6874175    150    1    1.08    0.966667;
    243    1    -9.2    0.5    0    0    1    1.11400386    5.66817552    380    1    1.11402    1.03947;
    244    1    28.9    24.3    0    0    1    1.11452179    3.70868634    380    1    1.11482    1.03947;
    245    1    18.2    8.4    0    0    1    1.1126834    5.41341812    380    1    1.11264    1.03947;
    246    1    -41.3    6.5    0    0    1    1.11486341    5.55323194    380    1    1.11483    1.03947;
    247    1    105.5    26.5    0    0    1    1.04636377    -26.6082149    225    1    1.08889    1.00444;
    248    1    0    0    0    0    1    1.06575492    -17.8133946    225    1    1.08889    1;
    249    1    0    0    0    0    1    1.06521452    -18.2164017    225    1    1.08889    1;
    250    1    0    0    0    0    1    1.07379151    -17.4255831    380    1    1.10526    1.05019;
    251    1    25.5    1.2    0    0    1    1.04486586    -9.89626283    225    1    1.08889    0.933333;
    252    1    171.9    30.6    0    0    1    1.06736785    -18.4932157    380    1    1.10526    1.03537;
    253    1    4.2    0    0    0    1    1.06520746    -26.7744959    225    1    1.08889    1.00444;
    254    1    0    0    0    0    1    1.06629503    -26.7160786    225    1    1.08889    1.00444;
    255    1    3.8    7.1    0    0    1    1.06537598    -27.0234056    225    1    1.08889    1.00444;
    256    1    0    0    0    80    1    1.06321688    -26.5334597    225    1    1.08889    1.00444;
    257    1    0    0    0    0    1    1.06743514    -20.9490236    380    1    1.10526    1.04211;
    258    1    0    0    0    0    1    1.06676385    -20.9843497    380    1    1.10526    1.04211;
    259    1    185.6    81.4    0    0    1    1.0302726    -16.2580411    225    1    1.08889    0.928889;
    260    1    119    80.1    0    0    1    1.07630185    -11.8582858    380    1    1.10526    1.03947;
    261    1    192.7    31.7    0    0    1    1.07967719    -35.9191753    225    1    1.08444    1.00444;
    262    1    15.3    3.5    0    0    1    1.04762075    -9.31094518    225    1    1.08889    0.933333;
    263    1    296.4    84.9    0    0    1    1.09807749    -7.26995104    380    1    1.10526    1.03947;
    267    1    355.7    111    0    0    1    1.0809706    -21.2574395    225    1    1.08444    1.00444;
    268    1    0    0    0    0    1    1.09192323    -18.0000736    380    1    1.10263    1.04211;
    269    1    0    0    0    0    1    1.09194409    -17.9967625    380    1    1.10263    1.04211;
    270    2    52.3    16.7    0    0    1    1.022    -12.1465934    20    1    1.06846    0.95;
    271    1    0    0    0    0    1    1.02293526    -11.9505383    225    1    1.08889    0.986667;
    272    1    252.4    112.7    0    0    1    1.04679872    -18.1837367    225    1    1.08889    0.986667;
    273    1    322.8    48.4    0    0    1    1.0864887    -24.5690369    380    1    1.10263    1.04211;
    274    1    74.3    48.9    0    0    1    1.04666126    -12.1561723    225    1    1.09611    0.986667;
    275    1    6.3    1.4    0    0    1    1.07035252    -18.2415276    225    1    1.08889    1.00444;
    276    1    48    8    0    0    1    1.05313126    -26.7616018    225    1    1.08889    1.00444;
    277    1    -0    -0    0    0    1    1.05325714    -26.6932892    225    1    1.08889    1.00444;
    278    1    0    0    0    0    1    1.08671254    -11.7691719    20    1    1.4    0.9;
    279    1    45    46.1    0    0    1    1.08111436    -11.0204756    225    1    1.08889    0.933333;
    280    1    253.3    26.3    0    0    1    1.09772772    -7.73522754    380    1    1.10526    1.03947;
    281    1    0    0    0    0    1    1.06765829    -16.1169399    225    1    1.08959    1;
    282    1    0    0    0    0    1    1.07959281    -15.5169171    225    1    1.08959    1;
    283    1    0    0    0    0    1    1.04095693    -21.6578304    150    1    1.08    0.966667;
    284    1    40.1    2.4    0    0    1    1.07636933    -28.1816775    225    1    1.08889    1.00444;
    285    1    110.1    18.7    0    0    1    1.06680355    -27.0880881    225    1    1.08889    1.00444;
    286    1    120.6    18.1    0    0    1    1.04982039    -14.5235675    225    1    1.08889    0.933333;
    287    1    35.9    8.7    0    0    1    1.0650204    -25.2632772    225    1    1.08444    1.00444;
    288    1    24.2    6.8    0    0    1    1.06503277    -25.2622101    225    1    1.08444    1.00444;
    289    1    75.2    12.5    0    0    1    1.0654015    -25.9701741    225    1    1.08889    1.00444;
    290    1    176.7    47.6    0    0    1    1.0611433    -21.8983634    225    1    1.08889    1.00444;
    291    1    0    0    0    0    1    1.07378425    -19.1993399    380    1    1.10526    1.04211;
    292    1    0    0    0    0    1    1.07413802    -19.0332426    380    1    1.10526    1.04211;
    293    1    0    0    0    0    1    1.08979504    -15.6923857    380    1    1.10526    1.04211;