function mpc = case2868rte_res
%CASE2868RTE_RES

%% MATPOWER Case Format : Version 2
mpc.version = '2';

%%-----  Power Flow Data  -----%%
%% system MVA base
mpc.baseMVA = 100;

%% bus data
%	bus_i	type	Pd	Qd	Gs	Bs	area	Vm	Va	baseKV	zone	Vmax	Vmin
mpc.bus = [
	1	1	-18.5	0	0	0	1	1.03957655	-13.0111353	63	1	1.06349	0.936508;
	2	1	11.8	0.6	0	0	1	1.06518648	-13.6051692	225	1	1.08889	0.888889;
	3	1	0	0	0	0	1	1.08941554	-4.75059826	380	1	1.10263	1;
	4	1	0	0	0	0	1	1.00539906	-21.1596057	63	1	1.07937	0.920635;
	5	1	0.2	-0.2	0	0	1	0.942373277	-9.30092954	45	1	1	0.888889;
	6	1	5.6	-19	0	0	1	0.943129044	-9.33740477	45	1	1	0.888889;
	7	1	223.6	7.6	0	0	1	1.06739634	-11.5320549	225	1	1.08444	1;
	8	1	68.6	7.6	0	0	1	1.01053032	-19.7529896	63	1	1.06349	0.968254;
	10	1	0	0	0	0	1	1.05698142	-7.91471633	150	1	1.10667	0.9;
	11	1	49.1	0.9	0	0	1	1.0488957	-10.7284444	225	1	1.08889	0.933333;
	2571	1	34	14.4	0	0	1	1.04731521	-11.6628163	225	1	1.08889	0.933333;
	12	1	0	0	0	0	1	1.05743958	-10.8542203	380	1	1.10526	1;
	2572	1	0	0	0	0	1	1.06317975	-10.3773542	380	1	1.10526	1;
	13	1	0	0	0	0	1	1.0612272	-21.0394837	225	1	1.09067	1;
	14	1	0.2	-1.1	0	0	1	1.00073528	-19.7249175	63	1	1.06349	0.936508;
	15	1	10.3	-0.2	0	0	1	1.01021045	-17.1068938	63	1	1.06349	0.936508;
	16	1	189.8	54.4	0	0	1	1.03360337	-15.4262953	225	1	1.08889	0.933333;
	17	1	54.5	13.1	0	0	1	1.07439486	-22.3601593	225	1	1.08889	1;
	18	1	67.6	23.2	0	0	1	1.06829594	-19.5969698	225	1	1.08962	1;
	19	2	0	0	0	0	1	1.032	-15.107511	63	1	1.08661	0.920635;
	20	1	150.5	40	0	0	1	1.0741706	-22.3609337	225	1	1.08889	1;
	21	1	78.1	6.2	0	0	1	1.0783866	-10.6541736	225	1	1.08889	0.888889;
	22	1	15	-9.4	0	0	1	0.990739884	-25.2295286	63	1	1.07249	0.936508;
	23	1	50.9	6	0	0	1	1.004058	-18.5574126	63	1	1.06349	0.936508;
	24	1	0	0	0	0	1	1.08737151	-7.2952325	225	1	1.08889	1;
	2573	1	0	0	0	0	1	1.08737109	-7.29522968	225	1	1.08889	1;
	25	1	65.1	1.6	0	0	1	1.07854285	-10.651115	225	1	1.08889	0.888889;
	26	1	1.6	-4.2	0	0	1	1.07601302	-4.37622142	225	1	1.09649	0.986667;
	27	1	42.8	2.3	0	0	1	1.01549156	-18.6124717	63	1	1.06349	0.936508;
	28	1	39.4	15.5	0	0	1	1.05114047	-20.7215659	225	1	1.08889	1;
	2574	1	42.2	12.4	0	0	1	1.05112285	-20.7219236	225	1	1.08889	1;
	29	1	11.4	0.5	0	0	1	1.00541664	-16.9770664	63	1	1.06349	0.936508;
	30	1	72.7	36.5	0	0	1	1.06339182	-19.1966909	225	1	1.08889	1;
	31	1	2.7	-1.4	0	0	1	1.0437316	-14.8387418	63	1	1.07211	0.936508;
	32	1	13.8	-0.4	0	0	1	1.02956918	-20.1028919	63	1	1.06349	0.936508;
	33	1	2	-0.5	0	0	1	0.937253696	-9.98190213	45	1	1	0.888889;
	34	1	0.4	0	0	0	1	0.942107891	-9.33095221	45	1	1	0.888889;
	35	1	30.4	3	0	0	1	1.02443432	-18.3951175	63	1	1.06349	0.968254;
	36	1	1.9	-3.1	0	0	1	0.975208152	-12.4965221	45	1	1	0.888889;
	37	1	18.9	0.9	0	0	1	0.994809576	-16.3207117	63	1	1.06349	0.936508;
	38	2	0	0	0	0	1	1.036	-12.9587755	63	1	1.07937	0.952381;
	39	1	99.3	18.8	0	0	1	1.04891471	-13.0865811	225	1	1.08934	0.986667;
	40	1	38.7	0.9	0	0	1	1.06144793	-12.2332706	225	1	1.08889	0.888889;
	41	1	89.8	13	0	0	1	1.06211207	-28.2338738	225	1	1.08444	1;
	42	1	63.9	9.7	0	0	1	1.02357689	-14.2857707	63	1	1.0637	0.936508;
	43	1	0	0	0	0	1	1.0442622	-12.0008146	225	1	1.08889	0.933333;
	44	1	33.1	-6.5	0	0	1	1.02689154	-18.3999112	63	1	1.06349	0.968254;
	45	1	168.4	34.9	0	0	1	1.0551274	-18.9138896	225	1	1.08889	1;
	46	1	0	0	0	0	1	1.08952723	-4.74289927	380	1	1.10526	1;
	2575	1	0	0	0	0	1	1.0895249	-4.73915619	380	1	1.10526	1;
	47	1	29.5	4.5	0	0	1	1.02949954	-11.2316773	63	1	1.06606	0.936508;
	48	1	1.6	0	0	0	1	1.03887642	-15.2889974	63	1	1.06735	0.936508;
	49	1	14.9	10.4	0	0	1	1.05539157	-11.0628202	63	1	1.06349	0.968254;
	2576	1	9.9	7.2	0	0	1	1.05265222	-11.8676344	63	1	1.06349	0.968254;
	50	1	0	0	0	0	1	1.07730094	-9.16963415	225	1	1.08444	1;
	51	1	114.9	20.2	0	0	1	1.07093641	-15.1497017	225	1	1.08444	1;
	52	1	0	0	0	0	1	1.07545547	-22.1858709	225	1	1.08889	1;
	2942	1	106	29.6	0	0	1	1.03659303	-21.1133457	225	1	1.08889	1;
	53	2	5.7	-6.6	0	0	1	1.038	-11.4311094	63	1	1.06349	0.968254;
	54	1	0	0	0	0	1	1.0682061	-11.2867084	150	1	1.08	0.966667;
	55	1	65.6	18	0	80	1	1.02340523	-7.54894479	225	1	1.09459	1;
	56	1	0	0	0	0	1	1.03781034	-4.80918038	380	1	1.10526	1;
	57	1	146.4	39.1	0	0	1	1.02132387	-17.9510217	225	1	1.08889	0.986667;
	59	1	78.7	21.1	0	0	1	1.07955302	-10.4371067	225	1	1.08889	0.968889;
	60	1	125.2	37.6	0	0	1	1.08485726	-8.23165199	380	1	1.10526	1;
	61	1	6	1	0	0	1	1.03146229	-15.6953609	63	1	1.06349	0.936508;
	63	1	36.1	4.7	0	7.7	1	1.01029862	-20.2681816	63	1	1.06349	0.968254;
	2577	1	0	0	0	0	1	1.01030231	-21.5337221	63	1	1.06349	0.968254;
	64	1	53.3	13.4	0	0	1	1.05292068	-12.8718026	225	1	1.08889	0.933333;
	65	1	0	0	0	0	1	1.01027587	-21.5377431	63	1	1.06349	0.968254;
	66	1	43.4	-0.7	0	0	1	0.933042416	-13.5245227	45	1	1	0.888889;
	2578	2	0	0	0	0	1	0.958	-13.5650268	45	1	1	0.888889;
	67	1	41.3	12.8	0	0	1	1.06671919	-11.0689115	225	1	1.08889	0.888889;
	2579	1	38.5	8.5	0	0	1	1.06691286	-11.0636528	225	1	1.08889	0.888889;
	68	1	19.6	3.7	0	0	1	1.06952561	-18.6087406	20	1	1.2	0.8;
	69	1	320.7	74.9	0	0	1	1.06956902	-18.60068	225	1	1.08685	1;
	70	1	140.9	-22.3	0	0	1	1.06895289	-20.8942074	225	1	1.08889	1;
	71	2	0	0	0	0	1	1.091	-12.7113775	150	1	1.10885	0.9;
	72	1	0	0	0	0	1	1.04879807	-20.8608924	225	1	1.08889	1;
	2580	1	0	0	0	0	1	1.04879785	-20.8608912	225	1	1.08889	1;
	74	1	0	0	0	0	1	1.04879659	-20.8608842	225	1	1.08889	1;
	75	1	15.6	3	0	0	1	1.03025319	-12.7426292	63	1	1.06349	0.936508;
	76	2	0	0	0	0	1	0.936	-9.41128233	45	1	1	0.888889;
	77	1	6.4	0.3	0	0	1	1.02620571	-16.13376	63	1	1.08481	0.920635;
	78	1	4.8	2.4	0	0	1	1.05507499	-19.4754964	225	1	1.08889	1;
	79	1	17.4	1.7	0	15	1	1.01232083	-27.6066706	63	1	1.07937	0.920635;
	80	1	10	-0.6	0	0	1	1.04752452	-19.7805908	63	1	1.08744	0.920635;
	81	1	0	0	0	0	1	1.0457556	-17.5459384	225	1	1.08889	1;
	82	1	63.1	25.3	0	0	1	1.05797107	-12.6007156	225	1	1.08889	0.888889;
	83	1	44.1	1.9	0	0	1	0.997327765	-25.9889941	63	1	1.06349	0.967399;
	84	1	162.3	51.1	0	0	1	1.07049383	-8.15108382	225	1	1.08889	0.968889;
	85	1	0	0	0	0	1	1.0860567	-5.01512762	380	1	1.10526	1;
	86	1	58.3	14.1	0	0	1	1.00695787	-23.5912689	63	1	1.06349	0.968254;
	87	1	32.5	4.6	0	0	1	0.999982392	-13.8517062	63	1	1.06349	0.968254;
	88	1	1.5	0.7	0	0	1	1.02997966	-16.6408389	63	1	1.06349	0.968254;
	89	1	55.7	8.3	0	0	1	1.02227792	-14.2907467	63	1	1.06349	0.968254;
	2581	1	30.1	12.2	0	0	1	1.02264817	-14.0676323	63	1	1.06349	0.968254;
	90	1	0	0	0	0	1	1.06819817	-13.9967504	225	1	1.08444	1;
	2582	1	0	0	0	0	1	1.06814494	-14.0264714	225	1	1.08444	1;
	91	1	190.1	8	0	0	1	1.0609786	-20.5117281	225	1	1.08889	1;
	92	1	36.8	-8.5	0	0	1	1.07027432	-10.2362826	225	1	1.09041	0.933333;
	93	2	0	0	0	0	1	1.09049665	-12.7689106	150	1	1.10907	0.9;
	94	1	35.7	55.7	0	0	1	1.07963696	-13.1274556	225	1	1.08444	1;
	2583	1	34	3.2	0	0	1	1.08045847	-13.1341806	225	1	1.08444	1;
	95	1	0	0	0	0	1	1.07859981	-13.4423401	225	1	1.08889	0.977778;
	96	1	15.9	4.1	0	0	1	1.06151729	-11.3464324	225	1	1.08889	0.888889;
	97	1	40.4	6.5	0	0	1	1.00683438	-21.8337772	63	1	1.06349	0.968254;
	98	1	-3.5	-1.6	0	0	1	1.05274446	-10.4769324	225	1	1.08889	0.933333;
	99	1	18.2	5.5	0	0	1	1.06126272	-21.0762065	225	1	1.08889	1;
	2584	1	33.2	14.1	0	0	1	1.06717707	-19.8514401	225	1	1.08889	1;
	100	1	-17.2	-4.3	0	0	1	1.04539812	-17.7392988	225	1	1.08889	1;
	101	1	24.4	1.9	0	0	1	1.06350639	-14.128083	225	1	1.08889	0.986667;
	102	1	0	0	0	80	1	1.0729128	-10.7856162	225	1	1.08889	0.888889;
	2585	1	0	0	0	0	1	1.06407719	-11.6498891	225	1	1.08889	0.888889;
	103	1	0	0	0	0	1	1.07696474	-7.33848757	380	1	1.10526	1;
	104	1	74.9	14.3	0	0	1	1.05011822	-20.9495225	225	1	1.08889	1;
	2586	1	29	6.8	0	0	1	1.0645714	-19.9635123	225	1	1.08889	1;
	105	1	11.4	9.2	0	0	1	1.00297235	-17.1362932	63	1	1.07937	0.920635;
	106	1	0	0	0	0	1	1.07060038	-10.2762424	225	1	1.08889	0.977778;
	2587	1	0	0	0	0	1	1.070607	-10.276139	225	1	1.08889	0.977778;
	107	1	5.7	10.3	0	0	1	1.03897502	-14.3975072	63	1	1.06349	0.968254;
	108	1	54.1	1.9	0	0	1	1.06844885	-10.9847814	225	1	1.08444	1;
	109	1	0	0	0	0	1	1.0766302	-14.2471297	225	1	1.08444	1;
	110	1	0	0	0	0	1	1.09334725	-8.51765667	380	1	1.10263	1;
	111	1	103.3	18	0	0	1	1.07631683	-14.3034686	225	1	1.08444	1;
	112	1	-1.5	2.2	0	0	1	1.0693145	-19.4309313	225	1	1.09035	1;
	2588	1	16.5	-0.1	0	0	1	1.06927818	-19.4408115	225	1	1.09035	1;
	113	1	47	9.8	0	0	1	1.08201018	-4.79130966	225	1	1.08889	0.888889;
	114	1	43.8	0.6	0	0	1	1.02403199	-16.8692967	63	1	1.06349	0.936508;
	115	1	16.4	1.2	0	0	1	1.06908523	-11.7335526	225	1	1.08889	0.888889;
	116	1	56.9	18.9	0	0	1	1.07289125	-6.93014012	225	1	1.08889	0.888889;
	117	1	3.2	0.4	0	0	1	1.01482629	-14.0493613	63	1	1.06349	0.968254;
	118	1	44	10	0	0	1	0.988975281	-29.9923532	63	1	1.07937	0.920635;
	119	1	28.5	-5.1	0	0	1	1.02799934	-21.5563898	63	1	1.06349	0.968254;
	120	2	0	0	0	0	1	1.049	-15.2172408	63	1	1.06863	0.936508;
	121	1	8.5	3.1	0	0	1	1.02506978	-25.803877	63	1	1.06349	0.968254;
	2589	1	15	6.8	0	0	1	1.02513219	-25.8354311	63	1	1.06349	0.968254;
	122	1	142.7	-26.6	0	0	1	1.05325884	-12.7327588	225	1	1.08889	1;
	123	1	32.4	7.9	0	0	1	1.01504148	-23.6910694	63	1	1.07937	0.920635;
	124	2	4.7	-2	0	0	1	1.022	-17.1073583	63	1	1.08203	0.920635;
	125	1	0	0	0	0	1	1.03819305	-21.6544359	63	1	1.07937	0.920635;
	126	1	0	0	0	0	1	1.02525626	-13.1734522	225	1	1.08889	1;
	127	1	0	0	0	0	1	1.06371873	-13.1881252	380	1	1.10526	1;
	128	1	26.4	3.8	0	0	1	1.03632416	-13.4240941	63	1	1.06349	0.936508;
	129	2	16.3	7.5	0	0	1	1.037	-16.1166699	63	1	1.06349	0.936508;
	130	1	10.9	16.3	0	0	1	1.04786668	-17.7778124	63	1	1.07937	0.920635;
	2955	1	0	0	0	0	1	1.02398063	-20.068129	63	1	1.07937	0.920635;
	131	1	0	0	0	0	1	1.05392318	-15.9072168	225	1	1.08889	1;
	132	1	139.1	40	0	0	1	1.04906517	-17.2738231	225	1	1.08889	1;
	133	2	9.2	3.6	0	0	1	1.008	-29.2059799	63	1	1.06538	0.968254;
	134	2	0	0	0	0	1	1.015	-21.7576146	150	1	1.08	0.966667;
	135	2	-14.9	-4.8	0	0	1	1.053	-19.687646	63	1	1.07937	0.920635;
	136	1	31.7	10.2	0	0	1	1.04848858	-12.5929652	225	1	1.08889	0.986667;
	137	1	9.7	-2.1	0	0	1	1.0189186	-13.8856047	63	1	1.06349	0.968254;
	138	1	12.8	5.8	0	0	1	1.06298776	-8.89881939	225	1	1.08444	1;
	140	1	0	0	0	0	1	1.09861949	-4.14463175	380	1	1.10526	1;
	2590	1	0	0	0	0	1	1.09941721	-4.06306633	380	1	1.10526	1;
	141	1	20.8	1.1	0	0	1	1.05583997	-11.4997909	225	1	1.08889	1;
	142	1	10.3	9.6	0	0	1	1.06628538	-16.5845916	225	1	1.08889	1;
	143	1	28.7	2.3	0	0	1	1.0197961	-21.5750362	63	1	1.06349	0.968254;
	144	1	82.9	11.1	0	0	1	1.07594805	-15.5306056	150	1	1.1	0.9;
	145	1	72.9	0.2	0	0	1	1.04830008	-13.922549	225	1	1.08925	1;
	146	2	-3.7	-0.5	0	0	1	1.051	-20.7629627	225	1	1.08889	1;
	147	1	0	0	0	0	1	1.04837328	-10.6411355	225	1	1.08889	0.933333;
	148	1	0	0	0	0	1	1.06319621	-10.3214042	380	1	1.10526	1;
	2591	1	0	0	0	0	1	1.05743298	-10.7718147	380	1	1.10526	1;
	149	1	0	0	0	0	1	1.07475627	-22.3348053	225	1	1.08889	1;
	2592	1	66.1	19.5	0	0	1	1.03476256	-21.3579635	225	1	1.08889	1;
	150	1	0	0	0	0	1	1.02227111	-11.260583	225	1	1.08889	0.986667;
	151	1	24	9.7	0	0	1	1.0745798	-22.3477116	225	1	1.08889	1;
	153	1	137.1	23.1	0	0	1	1.030028	-10.6502064	225	1	1.08889	0.933333;
	154	1	0	0	0	0	1	1.06646014	-7.36706696	380	1	1.10526	1;
	155	1	55.3	18.4	0	0	1	1.05886329	-10.839479	225	1	1.08889	1;
	156	1	30.9	4.2	0	0	1	1.04720268	-16.536765	63	1	1.06503	0.936508;
	157	1	2.4	0.4	0	0	1	1.03708773	-14.879738	63	1	1.06349	0.968254;
	158	1	27.5	2.2	0	0	1	1.01715932	-21.4099244	63	1	1.07937	0.920635;
	159	1	24.3	1.9	0	0	1	1.0062243	-24.2199348	63	1	1.06349	0.968254;
	160	1	5.6	3	0	0	1	1.02021764	-18.0965545	63	1	1.06349	0.936508;
	161	2	0	0	0	0	1	1.065	-21.577635	63	1	1.15	0.8;
	162	1	0.5	-40.5	0	0	1	1.07243861	-20.0070941	225	1	1.09053	1;
	163	1	0	0	0	0	1	1.02282737	-31.3729705	63	1	1.06349	0.968254;
	164	1	109.3	-1.7	0	0	1	1.04468016	-11.8119532	225	1	1.09791	1;
	165	1	187.3	17.6	0	0	1	1.05306887	-8.760606	225	1	1.08889	0.986667;
	166	1	51.6	6.2	0	0	1	1.03304695	-16.9614243	63	1	1.06349	0.968254;
	167	1	119.3	36.7	0	0	1	1.06123503	-21.0343517	225	1	1.09067	1;
	168	1	14.1	-5.7	0	0	1	1.00522034	-16.5302211	63	1	1.06349	0.936508;
	169	1	24.1	-4.6	0	0	1	1.02671007	-16.2554897	63	1	1.06349	0.968254;
	170	1	1.8	0.3	0	0	1	1.03256457	-16.1939542	63	1	1.06822	0.936508;
	171	1	181.5	51.4	0	0	1	1.05498233	-13.048966	225	1	1.08889	0.924444;
	172	2	-0	1.2	0	0	1	1.00941697	-12.5888057	63	1	1.06349	0.968254;
	173	1	82.5	15.9	0	0	1	1.0890222	-2.96146983	225	1	1.09616	0.986667;
	174	1	0	0	0	0	1	1.09572566	-1.93078031	380	1	1.10526	1;
	2998	1	0	0	0	0	1	1.09663606	-1.38977657	380	1	1.10526	1;
	175	1	120.7	-49.6	0	0	1	1.06611491	-23.374811	225	1	1.08444	1;
	177	1	0	0	0	0	1	1.01660286	-28.1748015	63	1	1.06349	0.960855;
	178	1	0	0	0	0	1	1.06625606	-26.912659	225	1	1.08444	1;
	179	1	0	0	0	0	1	1.058225	-24.1554343	380	1	1.10263	1;
	180	1	5	0.6	0	0	1	1.03001434	-10.6782887	225	1	1.08889	0.933333;
	181	1	-3	-14.3	0	0	1	0.982458652	-9.71307428	45	1	1.01652	0.888889;
	182	1	0	0	0	0	1	1.03174951	-15.6595317	63	1	1.06349	0.936508;
	183	1	0	0	0	0	1	1.04558364	-12.0458145	225	1	1.08889	0.933333;
	184	2	0	0	0	0	1	1.0674253	-9.02473956	225	1	1.08889	0.977778;
	185	1	22.3	-2.2	0	0	1	1.02363388	-18.1528221	63	1	1.06349	0.936508;
	186	1	-2.4	-2.2	0	0	1	1.07462868	-3.20972402	225	1	1.09862	1;
	187	1	0	0	0	0	1	1.07054204	-3.18764841	380	1	1.10526	1;
	2593	1	0	0	0	0	1	1.07057538	-3.18382398	380	1	1.10526	1;
	2594	1	0	0	0	0	1	1.07058822	-3.18470109	380	1	1.10526	1;
	2595	1	0	0	0	0	1	1.07060325	-3.19692662	380	1	1.10526	1;
	188	1	0	0	0	0	1	1.08948179	-2.8324756	225	1	1.09683	0.986667;
	2596	1	0	0	0	0	1	1.08917674	-2.85234606	225	1	1.09683	0.986667;
	189	1	0	0	0	0	1	1.09595517	-1.85939763	380	1	1.10526	1;
	190	1	39.7	-5.2	0	0	1	1.08030722	-11.0909855	225	1	1.08889	0.968889;
	191	1	36.6	-1.4	0	0	1	1.00255126	-32.6809232	63	1	1.06349	0.968254;
	192	1	38.7	6.8	0	0	1	1.06210335	-28.1885999	225	1	1.08444	1;
	193	1	51.7	10.5	0	0	1	1.09022278	-9.92640632	380	1	1.10526	1;
	194	1	0	0	0	0	1	1.03405942	-16.0655447	63	1	1.06349	0.936508;
	2597	1	0	0	0	0	1	1.03461218	-15.7180049	63	1	1.06349	0.936508;
	195	1	0	0	0	0	1	1.06101405	-11.2992216	225	1	1.08889	0.933333;
	196	1	0	0	0	0	1	1.0734336	-6.66009397	380	1	1.10526	1;
	197	1	6.2	17.4	0	0	1	1.03359109	-11.4090491	63	1	1.06349	0.968254;
	198	1	0	0	0	0	1	1.06625965	-7.53425444	225	1	1.08444	1;
	199	1	250.8	25.3	0	0	1	1.05991749	-10.3453555	225	1	1.08444	1;
	200	1	47.3	6.4	0	0	1	1.06042104	-11.9800023	225	1	1.08889	0.933333;
	2598	1	44.8	9.4	0	0	1	1.06039067	-11.9827755	225	1	1.08889	0.933333;
	201	1	51	0.4	0	0	1	1.07209519	-20.003265	225	1	1.09027	1;
	202	1	0	0	0	0	1	1.06330717	-9.06186902	225	1	1.09529	1;
	2599	1	0	0	0	0	1	1.06311406	-9.17343959	225	1	1.09529	1;
	203	1	76.8	4.7	0	0	1	1.05067458	-12.553079	225	1	1.08889	1;
	204	1	31.4	-2.8	0	0	1	1.07502116	-13.5344191	225	1	1.08889	1;
	205	1	0	0	0	0	1	1.00336329	-13.5019439	63	1	1.06349	0.968254;
	206	1	0	0	0	0	1	1.05379286	-9.25030132	225	1	1.08444	1;
	207	1	13.9	5.2	0	0	1	1.02475554	-20.3536535	63	1	1.06349	0.968254;
	208	1	6.3	5	0	0	1	1.02556299	-22.8335579	63	1	1.07937	0.920635;
	209	1	44.8	-0.6	0	0	1	0.990352215	-17.7266633	63	1	1.06349	0.936508;
	210	1	0	0	0	0	1	1.01232083	-27.6066706	63	1	1.07937	0.920635;
	211	1	33.9	5.9	0	0	1	1.04901358	-13.252029	225	1	1.08889	1;
	212	1	0	0	0	0	1	1.07331252	-16.963779	225	1	1.08444	1;
	213	1	0	0	0	0	1	1.07321346	-16.9726404	225	1	1.08444	1;
	2600	1	0	0	0	0	1	1.07372427	-11.8163422	225	1	1.08444	1;
	214	1	0	0	0	0	1	1.07470184	-9.43622008	380	1	1.10263	1;
	215	1	-3.6	-5.3	0	0	1	1.03936765	-15.0313273	63	1	1.06418	0.936508;
	216	1	186	34.8	0	0	1	1.07316415	-6.66732073	225	1	1.08889	0.888889;
	217	1	0	0	0	0	1	1.07462005	-3.20978848	225	1	1.09861	1;
	218	1	0	0	0	0	1	1.07049847	-3.26018207	380	1	1.10526	1;
	219	1	37.1	2.4	0	0	1	1.0650745	-15.5152453	225	1	1.08889	0.986667;
	220	2	0	0	0	0	1	0.997	-28.514058	63	1	1.06349	0.968254;
	221	1	22.8	6.4	0	0	1	1.00907652	-18.5090895	63	1	1.07937	0.920635;
	222	1	0	0	0	0	1	1.04867328	-17.2565058	225	1	1.08889	1;
	223	1	0	0	0	0	1	1.07482609	-29.7437039	225	1	1.08444	1;
	2601	1	0	0	0	0	1	1.07481856	-29.743507	225	1	1.08444	1;
	2602	1	0	0	0	0	1	1.07481856	-29.743507	225	1	1.08444	1;
	224	1	70.6	-9.6	0	0	1	1.0748175	-29.7434793	225	1	1.08444	1;
	225	2	0	0	0	0	1	1.046	-10.052535	20	1	1.2	0.8;
	226	1	0	0	0	0	1	1.0432963	-11.9694398	225	1	1.08889	0.933333;
	227	1	15.7	-0.9	0	0	1	1.05770598	-15.2079173	225	1	1.08889	0.986667;
	229	1	0	0	0	0	1	1.05710866	-9.61708094	225	1	1.0904	1;
	230	1	0	0	0	0	1	1.07559174	-7.86459598	380	1	1.10526	1;
	231	2	0	0	0	0	1	1.04	-9.97408009	225	1	1.08889	0.933333;
	232	1	13.4	1	0	0	1	1.01403279	-12.6807681	63	1	1.06349	0.968254;
	2603	1	8.9	-0.3	0	0	1	1.03438937	-11.9561733	63	1	1.06349	0.968254;
	233	1	0	0	0	0	1	1.06707977	-11.494435	150	1	1.08	0.966667;
	234	1	3.8	0.2	0	0	1	1.05213317	-20.4698429	225	1	1.08889	1;
	2604	1	53.2	27.8	0	0	1	1.05137269	-20.5459589	225	1	1.08889	1;
	235	2	0	0	0	0	1	1.022	-14.2836111	63	1	1.06349	0.936508;
	236	2	26.8	0.8	0	0	1	1.022	-15.2539456	63	1	1.06349	0.968254;
	237	1	15	0.1	0	0	1	1.01939833	-18.7520789	63	1	1.06349	0.936508;
	238	1	48.1	15.9	0	0	1	1.07330452	-7.29644884	225	1	1.08889	0.888889;
	239	1	0	0	0	0	1	1.06686112	-10.4465881	225	1	1.0919	1;
	2605	1	0	0	0	0	1	1.06686908	-10.4448001	225	1	1.0919	1;
	2606	1	0	0	0	0	1	1.06684541	-10.4546645	225	1	1.0919	1;
	2607	1	0	0	0	0	1	1.0668645	-10.4456869	225	1	1.0919	1;
	2608	1	0	0	0	0	1	1.06685741	-10.4481098	225	1	1.0919	1;
	240	2	0	0	0	0	1	1.073	-7.22955631	380	1	1.10694	1;
	241	1	13.8	6.5	0	0	1	1.03086666	-10.3594288	63	1	1.06721	0.936508;
	242	1	43.7	6.5	0	0	1	1.0336101	-16.391731	63	1	1.06349	0.968254;
	243	1	165.4	29.4	0	0	1	1.04917401	-13.224728	225	1	1.08889	1;
	244	1	39.8	7.7	0	0	1	1.02166998	-24.0024105	63	1	1.06349	0.968254;
	245	1	36.4	15.7	0	0	1	1.03375647	-11.0819117	225	1	1.08889	0.986667;
	246	1	0	0	0	0	1	1.08353998	-4.82923555	380	1	1.10526	1;
	2609	1	0	0	0	0	1	1.0824066	-4.88783807	380	1	1.10526	1;
	2610	1	0	0	0	0	1	1.08356909	-4.8359663	380	1	1.10526	1;
	2611	1	0	0	0	0	1	1.08242778	-4.89822121	380	1	1.10526	1;
	247	1	42.1	16.7	0	0	1	1.05531703	-12.0277135	225	1	1.08889	0.924444;
	248	1	24.3	1.4	0	0	1	1.01002139	-15.8892302	63	1	1.06349	0.936508;
	249	1	13.6	-1.2	0	0	1	0.988630811	-18.6184765	63	1	1.06349	0.936508;
	250	1	-2.7	0	0	0	1	1.02889486	-17.6226686	225	1	1.08889	0.986667;
	251	1	87.5	47.6	0	0	1	1.05109585	-24.086482	225	1	1.08684	1;
	252	2	-0	0	0	0	1	0.952	-10.5400374	45	1	1	0.888889;
	253	1	-0.9	0.5	0	0	1	1.0674433	-2.1883331	380	1	1.10263	1;
	254	1	-0.4	0.5	0	0	1	1.06747902	-2.20626613	380	1	1.10263	1;
	255	1	5.8	-0.5	0	0	1	1.04126358	-15.8734252	63	1	1.06754	0.936508;
	256	1	0	0	0	0	1	1.04803276	-21.2316279	225	1	1.08889	1;
	257	1	0	0	0	0	1	1.07417552	-10.8750702	225	1	1.08889	0.977778;
	2612	1	0	0	0	0	1	1.07417576	-10.8749919	225	1	1.08889	0.977778;
	258	1	65.9	4.3	0	0	1	1.07544451	-11.8281747	225	1	1.08889	0.968889;
	259	2	0	0	0	0	1	1.052	-6.40433894	20	1	1.2	0.8;
	2613	2	0	0	0	0	1	1.053	-6.33387368	20	1	1.2	0.8;
	2614	2	0	0	0	0	1	1.053	-6.16481932	20	1	1.2	0.8;
	260	1	0	0	0	0	1	1.04956913	-8.24882396	225	1	1.08889	0.933333;
	2615	1	0	0	0	0	1	1.05064221	-8.03073674	225	1	1.08889	0.933333;
	261	1	92.8	34.4	0	0	1	1.04936642	-20.6888795	225	1	1.08489	1;
	262	2	9.8	1.5	0	0	1	0.951	-10.6995288	45	1	1	0.888889;
	263	1	30.9	1.4	0	0	1	1.05810639	-17.4648237	20	1	1.2	0.8;
	2616	1	23.9	3.2	0	0	1	1.0580974	-17.4617563	20	1	1.2	0.8;
	2617	1	23	0.5	0	0	1	1.05811941	-17.4614802	20	1	1.2	0.8;
	264	1	195	-58.4	0	0	1	1.05814055	-17.4516608	225	1	1.08444	1;
	265	1	14.6	-4	0	0	1	1.03505517	-17.1904936	63	1	1.06349	0.968254;
	266	1	0	0	0	0	1	1.06944498	-12.3007347	225	1	1.08889	0.977778;
	267	1	0	0	0	0	1	1.07199529	-11.1852425	225	1	1.08444	1;
	268	1	21.6	-4.6	0	0	1	1.0008167	-17.1023411	63	1	1.06349	0.936508;
	269	1	34.5	5.6	0	0	1	0.991557276	-33.2988479	63	1	1.06349	0.968254;
	270	1	155.6	18.6	0	0	1	1.06082177	-14.1834045	225	1	1.08889	0.951111;
	271	2	0	0	0	0	1	1.02	-12.6924057	63	1	1.06349	0.936508;
	272	1	76.6	12.4	0	0	1	1.06477133	-19.8323409	225	1	1.08889	1;
	273	1	89.1	13.2	0	0	1	1.03010915	-17.6972721	225	1	1.08889	0.986667;
	274	2	0	0	0	0	1	1.033	-11.8111668	63	1	1.06349	0.936508;
	275	2	0	0	0	0	1	1.034	-11.5084687	63	1	1.06349	0.936508;
	276	1	21.1	-6	0	0	1	1.03106077	-19.1359725	63	1	1.09138	0.920635;
	277	1	20.3	2.7	0	0	1	1.03726932	-16.2836795	63	1	1.06725	0.936508;
	279	1	29.3	1.8	0	0	1	1.05128012	-27.2852129	225	1	1.08444	1;
	280	1	0	0	0	0	1	1.05578254	-25.0960184	380	1	1.10263	1;
	281	1	41	2.6	0	0	1	1.02804453	-13.313601	63	1	1.06349	0.968254;
	282	1	108.4	30.6	0	0	1	1.06386536	-20.1637751	225	1	1.08889	1;
	283	2	0	0	0	0	1	1.074	-10.5181211	225	1	1.08889	0.888889;
	284	1	0	0	0	0	1	1.0739945	-10.519704	225	1	1.08889	0.888889;
	285	2	0	0	0	0	1	1.032	-12.5151136	63	1	1.06349	0.936508;
	2618	2	0	0	0	0	1	1.032	-13.9343794	63	1	1.06349	0.936508;
	286	1	274.1	47.6	0	80	1	1.07662457	-20.4167383	225	1	1.08444	1;
	287	1	0	0	0	0	1	0.99503535	-13.3033945	20	1	1.2	0.8;
	2619	1	0	0	0	0	1	0.99503535	-13.3033945	20	1	1.2	0.8;
	2620	1	0	0	0	0	1	0.99503535	-13.3033945	20	1	1.2	0.8;
	288	1	112.4	25.6	0	0	1	0.994041309	-13.3033945	63	1	1.06349	0.936508;
	289	1	70.1	19.9	0	0	1	1.07638775	-4.17900801	225	1	1.09508	0.986667;
	290	1	86.7	14.7	0	0	1	1.06931462	-15.6415867	225	1	1.08444	1;
	2621	1	26.5	2.4	0	0	1	1.07082806	-15.1623851	225	1	1.08444	1;
	291	2	0	0	0	0	1	1.03	-8.67232666	20	1	1.2	0.8;
	2622	2	0	0	0	0	1	1.024	-9.39820572	20	1	1.2	0.8;
	292	1	0	0	0	0	1	1.01555621	-13.203533	63	1	1.06349	0.936508;
	2623	1	0	0	0	0	1	1.02608913	-12.0273969	63	1	1.06349	0.936508;
	293	1	0	0	0	0	1	1.04578564	-8.99041808	225	1	1.08889	0.933333;
	294	1	0	0	0	0	1	1.09441703	-2.16851947	380	1	1.10526	1;
	295	1	61.5	7.3	0	0	1	1.0249543	-16.4078716	63	1	1.06349	0.936508;
	296	1	13.2	3.7	0	0	1	1.00317647	-17.1712454	63	1	1.06349	0.936508;
	297	1	81.6	9.8	0	0	1	1.07100224	-10.7548157	380	1	1.10526	1;
	298	2	0	0	0	0	1	1.05	-6.71013209	20	1	1.2	0.8;
	2624	2	0	0	0	0	1	1.051	-6.67792243	20	1	1.2	0.8;
	2625	2	0	0	0	0	1	1.05	-6.71466169	20	1	1.2	0.8;
	299	1	0	0	0	0	1	1.04845709	-8.47131184	225	1	1.08889	0.933333;
	2626	1	0	0	0	0	1	1.04739678	-8.63585386	225	1	1.08889	0.933333;
	300	1	9.7	-1.5	0	0	1	1.03035582	-21.9573437	63	1	1.07937	0.920635;
	301	1	44.1	19.8	0	0	1	1.08031979	-13.0727097	225	1	1.08444	1;
	2627	1	-0.2	-0.7	0	0	1	1.08080084	-13.033412	225	1	1.08444	1;
	302	1	-0.7	-3.3	0	0	1	1.01802111	-27.3552412	63	1	1.06349	0.968254;
	303	1	10.2	0.7	0	0	1	1.07284781	-14.2699261	225	1	1.08444	1;
	304	1	14.3	-2.1	0	0	1	1.03153342	-14.2979115	63	1	1.06349	0.968254;
	305	2	0	0	0	0	1	1.057	-11.8552441	63	1	1.06453	0.968254;
	2628	2	0	0	0	0	1	1.062	-10.8082153	63	1	1.06453	0.968254;
	306	1	79.9	15.4	0	0	1	1.06572066	-15.6588785	225	1	1.09106	1;
	307	1	19.9	2.8	0	0	1	1.06986206	-15.5519247	225	1	1.08444	1;
	2629	1	33.7	-2.9	0	0	1	1.06962124	-15.5887548	225	1	1.08444	1;
	308	1	1	0.3	0	0	1	1.0686839	-10.8953035	150	1	1.10667	0.946667;
	309	1	-0	-7.3	0	0	1	1.02200874	-15.3012965	63	1	1.06349	0.968254;
	310	2	0.1	-0.8	0	0	1	1.088	-18.6208242	63	1	1.08891	0.920635;
	311	1	0	0	0	0	1	1.07542142	-28.2514987	225	1	1.08444	1;
	312	1	0	0	0	0	1	1.0780229	-23.9009564	380	1	1.10263	1;
	313	2	0	0	0	0	1	1.043	-21.5156809	63	1	1.07937	0.920635;
	314	2	0	0	0	0	1	0.962	-9.03182683	45	1	1.00087	0.888889;
	315	1	0.2	-1.8	0	0	1	1.02713146	-15.2760883	63	1	1.06349	0.968254;
	316	2	0	0	0	0	1	1.109	-17.6032793	63	1	1.37727	0.576136;
	317	1	0	0	0	0	1	1.00385859	-20.9533819	63	1	1.07937	0.920635;
	318	1	0.1	1.3	0	0	1	1.04652351	-14.7496004	63	1	1.06349	0.968254;
	319	1	15.2	-1	0	0	1	1.00345572	-31.7386668	63	1	1.06349	0.968254;
	2630	1	26.1	-0.6	0	0	1	1.00254925	-31.8278835	63	1	1.06349	0.968254;
	2631	1	16.6	3.9	0	0	1	1.00178511	-31.7556876	63	1	1.06349	0.968254;
	320	1	152.8	2.6	0	0	1	1.04878401	-10.6500644	225	1	1.09934	1;
	321	1	0	0	0	0	1	1.05225603	-7.90314513	380	1	1.10526	1;
	322	1	102.3	16.7	0	0	1	1.06730167	-10.9856633	225	1	1.08889	0.911111;
	323	1	0	0	0	0	1	1.08588582	-4.11497361	380	1	1.10526	1;
	324	1	44.1	13.8	0	0	1	1.0747235	-22.3390043	225	1	1.08889	1;
	2632	1	35	8.7	0	0	1	1.0348522	-21.3518008	225	1	1.08889	1;
	325	1	4.7	1.7	0	0	1	1.06801469	-15.0006264	225	1	1.08889	0.986667;
	2633	1	-0	1.7	0	0	1	1.06805556	-14.9859859	225	1	1.08889	0.986667;
	326	2	7.1	3.1	0	0	1	1.059	-18.9619538	63	1	1.07937	0.920635;
	2634	2	0	0	0	0	1	1.061	-18.8757377	63	1	1.07937	0.920635;
	327	1	1.9	-1.1	0	0	1	1.00335473	-32.4256095	63	1	1.06349	0.968254;
	328	1	34.5	2.3	0	0	1	1.00732164	-28.9632455	63	1	1.06349	0.968254;
	329	1	22.2	10.6	0	0	1	1.04246424	-18.2153656	63	1	1.06349	0.968254;
	2635	1	16.2	10.2	0	0	1	1.04416783	-18.1322882	63	1	1.06349	0.968254;
	330	1	41.5	-0.3	0	0	1	1.04546025	-14.7813401	63	1	1.06405	0.968254;
	331	1	20	3	0	0	1	1.01976275	-25.4334108	63	1	1.06349	0.968254;
	2636	1	22.7	2.6	0	0	1	1.01948763	-25.4825838	63	1	1.06349	0.968254;
	332	1	3.5	0	0	0	1	1.06142058	-20.3368728	225	1	1.08889	1;
	2637	1	18.9	12.4	0	0	1	1.06092351	-20.3581434	225	1	1.08889	1;
	333	1	0	0	0	0	1	1.05414143	-17.3492976	225	1	1.08889	1;
	2638	1	197.7	48.5	0	0	1	1.04793724	-18.5856657	225	1	1.08889	1;
	334	1	64.2	16.8	0	0	1	1.05711769	-21.7208994	225	1	1.08889	1;
	2639	1	56.3	15.3	0	0	1	1.05783903	-21.6662713	225	1	1.08889	1;
	335	2	-26	0.9	0	0	1	0.982093537	-13.8761403	20	1	1.2	0.8;
	336	1	0	0	0	0	1	1.04811414	-17.1070453	150	1	1.08	0.966667;
	337	1	42.8	6.7	0	0	1	1.02688842	-20.5489307	63	1	1.07937	0.920635;
	338	1	-8.9	-19.9	0	0	1	1.11551066	3.35619596	380	1	1.11579	1;
	339	1	51.1	21.8	0	0	1	1.10137873	0.322235736	380	1	1.11674	1;
	340	1	-16.7	-26	0	0	1	1.11529177	4.89856629	380	1	1.11579	1;
	341	1	-35.3	-10.2	0	0	1	1.11485398	4.96111011	380	1	1.11587	1;
	342	1	93.3	25	0	0	1	1.05037035	-20.813834	225	1	1.08889	1;
	343	1	0	0	0	0	1	1.03910529	-14.4014314	63	1	1.06349	0.968254;
	344	1	28.5	-2.4	0	0	1	1.04292315	-15.0625494	63	1	1.06349	0.968254;
	345	1	15.7	-2.3	0	0	1	1.00805794	-32.613497	63	1	1.06349	0.968254;
	346	1	5.7	0.7	0	0	1	1.04471642	-14.2095433	63	1	1.06349	0.968254;
	348	1	0	0	0	0	1	1.05347175	-12.3794459	225	1	1.08889	1;
	2641	1	0	0	0	0	1	1.05446942	-12.8593866	225	1	1.08889	1;
	349	1	0	0	0	0	1	1.06652875	-12.3775919	380	1	1.10526	1;
	350	1	18.6	-1.9	0	0	1	1.04578597	-9.03622281	225	1	1.08889	0.933333;
	351	1	-1.5	-1.4	0	0	1	1.02512515	-16.3749535	63	1	1.06349	0.936508;
	352	1	160.1	26	0	0	1	1.07236355	-13.2470475	380	1	1.10526	1;
	353	1	14.1	16.8	0	0	1	0.975708812	-20.2903819	63	1	1.06349	0.936508;
	354	1	28.2	-4.6	0	0	1	1.01059947	-28.114781	63	1	1.07937	0.920635;
	356	1	0	0	0	80	1	1.06581894	-19.653042	225	1	1.08889	1;
	2642	1	2.5	9	0	0	1	1.07502518	-19.9357795	225	1	1.08889	1;
	2643	1	4.4	0.7	0	0	1	1.0743756	-19.8285962	225	1	1.08889	1;
	357	1	0	0	0	0	1	1.07128786	-14.4858704	380	1	1.10526	1;
	2645	1	0	0	0	0	1	1.07126581	-14.5249895	380	1	1.10526	1;
	358	1	165.9	70.6	0	0	1	1.05031918	-12.1269289	225	1	1.08889	0.928889;
	359	1	90.1	-2.3	0	0	1	1.07099922	-10.7604501	380	1	1.10526	1;
	360	1	25.8	3.2	0	0	1	1.02112395	-19.7613427	63	1	1.06349	0.968254;
	361	1	172	23	0	0	1	1.05955034	-18.3835224	225	1	1.08444	1;
	362	1	29.7	10.9	0	0	1	1.04581503	-8.80629411	225	1	1.08889	0.933333;
	363	1	0	0	0	0	1	1.03522233	-12.0780776	63	1	1.06349	0.936508;
	364	1	0	0	0	0	1	1.08002601	-5.33177319	380	1	1.10526	1;
	365	1	308.6	79.4	0	0	1	1.06918093	-11.319013	225	1	1.08444	1;
	366	1	0	0	0	0	1	1.08081743	-8.18441342	380	1	1.10263	1;
	2646	1	0	0	0	0	1	1.0808385	-8.18123645	380	1	1.10263	1;
	367	2	43.4	33.1	0	0	1	0.995	-14.8852723	20	1	1.2	0.8;
	368	1	0	0	0	0	1	1.02075338	-15.1465626	225	1	1.08889	0.986667;
	369	1	242.8	92.1	0	0	1	1.04858487	-15.3869253	225	1	1.08889	0.986667;
	370	1	1.9	-0.4	0	0	1	1.03174482	-15.6604481	63	1	1.06349	0.936508;
	371	2	0	0	0	0	1	1.04	-10.7638447	63	1	1.06349	0.936508;
	372	1	306.7	50.2	0	0	1	1.08618919	-11.5918892	380	1	1.10263	1;
	373	1	69.1	41.5	0	0	1	1.06753446	-9.50435701	225	1	1.09613	0.986667;
	374	1	1.7	0	0	0	1	1.02711311	-14.6295612	63	1	1.06349	0.936508;
	375	1	10.5	-2	0	0	1	1.03228868	-16.1804273	63	1	1.06349	0.936508;
	376	1	20.6	0.5	0	0	1	1.07197363	-12.4093281	225	1	1.08889	1;
	377	1	-0	0	0	0	1	1.04856778	-20.8952646	225	1	1.08889	1;
	2647	1	44	11.7	0	0	1	1.04846411	-20.9601177	225	1	1.08889	1;
	378	1	16.4	1.7	0	0	1	1.01800513	-15.1433844	63	1	1.06349	0.936508;
	379	1	0	0	0	0	1	1.08592341	-8.81710948	20	1	1.2	0.8;
	380	1	0	0	0	0	1	1.033884	-10.1398126	63	1	1.06977	0.936508;
	381	1	0	0	0	0	1	1.07770032	-8.12366515	225	1	1.08889	0.933333;
	382	1	0	0	0	0	1	1.08197195	-5.00076158	380	1	1.10526	1;
	383	1	2.5	0.6	0	0	1	1.01741706	-14.6557396	63	1	1.06349	0.936508;
	384	1	0	0	0	0	1	1.04438868	-10.4239619	225	1	1.09043	1;
	2648	1	0	0	0	0	1	1.05733189	-9.61978519	225	1	1.09043	1;
	385	1	0	0	0	0	1	1.01412369	-22.0762144	150	1	1.08	0.966667;
	386	1	43.1	1.2	0	0	1	1.0621947	-20.7142072	225	1	1.08889	1;
	2649	1	107.7	16.6	0	0	1	1.05690889	-20.2117244	225	1	1.08889	1;
	387	1	77.8	14.4	0	0	1	1.04079482	-13.3483229	225	1	1.08889	0.933333;
	388	1	32.2	5.7	0	0	1	1.05476555	-14.819158	225	1	1.08444	1;
	2650	1	22.3	3.5	0	0	1	1.05477756	-14.8182257	225	1	1.08444	1;
	389	1	72.3	11.2	0	0	1	1.05488685	-19.013652	225	1	1.08889	1;
	391	1	182.8	65.8	0	0	1	1.05382107	-15.7783857	225	1	1.08889	1;
	392	1	0	0	0	0	1	1.06606436	-13.1002291	380	1	1.10526	1;
	2651	1	0	0	0	0	1	1.06664608	-12.9909183	380	1	1.10526	1;
	2652	1	0	0	0	0	1	1.08089496	-10.0480953	380	1	1.10526	1;
	393	1	14.7	1.1	0	0	1	1.03036121	-10.7785319	63	1	1.06755	0.936508;
	394	1	0	0	0	0	1	1.06635537	-13.0455623	380	1	1.10526	1;
	395	1	260.2	52.8	0	0	1	1.05846519	-19.0082564	225	1	1.08444	1;
	396	1	0	0	0	0	1	1.08223152	-8.5195294	380	1	1.10526	1;
	397	1	59.5	13.3	0	0	1	1.06164262	-20.95746	225	1	1.08889	1;
	2653	1	0	0	0	0	1	1.04681092	-21.1282834	225	1	1.08889	1;
	398	1	0	0	0	0	1	1.06920212	-8.60045447	380	1	1.10526	1;
	399	1	9.1	-3.2	0	0	1	0.984337952	-15.9364094	63	1	1.06349	0.968254;
	400	1	0	0	0	0	1	1.09347656	-8.50794708	380	1	1.10263	1;
	2976	1	0	0	0	0	1	1.09338015	-8.47420404	380	1	1.10263	1;
	401	1	0	0	0	0	1	1.09345423	-8.47432572	380	1	1.10263	1;
	2654	1	0	0	0	0	1	1.09343889	-8.47397063	380	1	1.10263	1;