0,   100.00, 30, 0, 1,  60.00     / PSS(R)E 30 RAW
                               100.0

     2,'CORONADO    ', 500.0000,1,     0.000,     0.000,   1,   1,0.98248, -38.2790,   1
     3,'CHOLLA      ', 345.0000,1,     0.000,     0.000,   1,   1,0.98201, -29.5983,   1
     4,'CORONADO    ',  20.0000,2,     0.000,     0.000,   1,   1,1.04000, -31.8595,   1
     5,'CRAIG       ', 345.0000,1,     0.000,     0.000,   1,   1,0.97081,   5.6360,   1
     6,'CRAIG       ',  22.0000,2,     0.000,     0.000,   1,   1,0.95000,  13.0226,   1
     7,'FOURCORN    ', 500.0000,1,     0.000,  -113.000,   1,   1,1.06955, -21.0838,   1
     8,'FOURCORN    ', 345.0000,1,     0.000,  -155.000,   1,   1,1.01031, -18.0156,   1
     9,'FCNGN4CC    ',  22.0000,2,     0.000,     0.000,   1,   1,1.00000, -11.1062,   1
    10,'FOURCORN    ', 230.0000,1,     0.000,     0.000,   1,   1,1.00840, -18.5669,   1
    11,'HAYDEN      ',  20.0000,2,     0.000,     0.000,   1,   1,1.00000,  23.1715,   1
    12,'NAVAJO      ', 500.0000,1,     0.000,  -190.000,   2,   1,1.07019, -36.3224,   1
    13,'NAVAJO 2    ',  26.0000,2,     0.000,     0.000,   2,   1,1.00000, -30.1878,   1
    14,'MOENKOPI    ', 500.0000,1,     0.000,  -391.000,   2,   1,1.06552, -37.2753,   1
    15,'PALOVRD2    ',  24.0000,2,     0.000,     0.000,   2,   1,0.96000, -34.8733,   1
    16,'PALOVRDE    ', 500.0000,1,     0.000,  -146.000,   2,   1,1.04613, -42.8416,   1
    17,'SAN JUAN    ', 345.0000,1,     0.000,   390.000,   1,   1,1.03551, -17.2653,   1
    18,'SJUAN G4    ',  22.0000,2,     0.000,     0.000,   1,   1,1.00000, -14.2778,   1
    19,'WESTWING    ', 500.0000,1,     0.000,  -427.000,   2,   1,1.05341, -42.7384,   1
    20,'NAVAJO1     ', 500.0000,1,     0.000,     0.000,   2,   1,1.06829, -35.1997,   1
    21,'NAVAJO2     ', 500.0000,1,     0.000,     0.000,   2,   1,1.05876, -38.4102,   1
    22,'NAVAJO3     ', 500.0000,1,     0.000,     0.000,   2,   1,1.04564, -34.2684,   1
    23,'NAVAJO4     ', 500.0000,1,     0.000,     0.000,   2,   1,1.02390, -44.8532,   1
    24,'MOENKOP1    ', 500.0000,1,     0.000,     0.000,   2,   1,1.05432, -35.5892,   1
    25,'MOENKOP2    ', 500.0000,1,     0.000,     0.000,   2,   1,1.03922, -44.4573,   1
    26,'MOENKOP3    ', 500.0000,1,     0.000,     0.000,   2,   1,1.05064, -28.7366,   1
    27,'MOENKOP4    ', 500.0000,1,     0.000,     0.000,   2,   1,1.03311, -53.5236,   1
    28,'FOURCOR1    ', 500.0000,1,     0.000,     0.000,   1,   1,1.06717, -19.0573,   1
    29,'FOURCOR2    ', 500.0000,1,     0.000,     0.000,   1,   1,1.06590, -40.2829,   1
    30,'CANAD G1    ',  20.0000,2,     0.000,     0.000,   1,   1,1.00000,   4.8754,   1
    31,'CANADA      ', 500.0000,1,     0.000,     0.000,   1,   1,1.03637,   1.0849,   1
    32,'CANALB      ', 500.0000,1,     0.000,     0.000,   1,   1,1.08156,  28.7616,   1
    33,'CA230TO     ', 230.0000,1,     0.000,     0.000,   1,   1,0.98075,  33.2494,   1
    34,'CA230       ', 230.0000,1,     0.000,     0.000,   1,   1,1.00133,  42.1281,   1
    35,'CMAIN GM    ',  20.0000,2,     0.000,     0.000,   1,   1,1.02000,  47.0438,   1
    36,'BRIDGER2    ',  22.0000,2,     0.000,     0.000,   1,   1,1.00900,  -9.0264,   1
    37,'ADELANTO    ', 500.0000,1,     0.000,   912.000,   2,   1,1.04370, -52.8146,   1
    38,'ADELAN&1    ', 500.0000,1,     0.000,     0.000,   2,   1,1.06272, -56.3952,   1
    39,'CASTAIC     ', 230.0000,1,     0.000,     0.000,   2,   1,1.01873, -57.2467,   1
    40,'CASTAI4G    ',  18.0000,2,     0.000,     0.000,   2,   1,1.02000, -55.9885,   1
    41,'GLENDAL     ', 230.0000,1,     0.000,     0.000,   2,   1,1.00678, -61.3383,   1
    42,'HAYNES      ', 230.0000,1,     0.000,     0.000,   2,   1,1.01972, -61.1580,   1
    43,'HAYNES3G    ',  18.0000,2,     0.000,     0.000,   2,   1,1.00000, -57.8321,   1
    44,'INTERMT     ', 345.0000,1,     0.000,   430.000,   1,   1,1.04510, -25.2099,   1
    45,'INTERM1G    ',  26.0000,2,     0.000,     0.000,   1,   1,1.05000, -20.5580,   1
    46,'OLIVE       ', 230.0000,1,     0.000,     0.000,   2,   1,1.01711, -57.5934,   1
    47,'OWENS G     ',  11.5000,2,     0.000,     0.000,   2,   1,1.02000, -57.5493,   1
    48,'RINALDI     ', 230.0000,1,     0.000,     0.000,   2,   1,1.01576, -57.8163,   1
    49,'RINALDI     ', 500.0000,1,     0.000,   -80.000,   2,   1,1.05497, -55.8105,   1
    50,'RIVER       ', 230.0000,1,     0.000,     0.000,   2,   1,1.00858, -62.3740,   1
    51,'STA B       ', 138.0000,1,     0.000,     0.000,   2,   1,1.01753, -62.5682,   1
    52,'STA B1      ', 287.0000,1,     0.000,     0.000,   2,   1,1.02144, -61.3806,   1
    53,'STA B2      ', 287.0000,1,     0.000,     0.000,   2,   1,1.02144, -61.3806,   1
    54,'STA BLD     ', 230.0000,1,     0.000,     0.000,   2,   1,1.01218, -62.7229,   1
    55,'STA E       ', 230.0000,1,     0.000,     0.000,   2,   1,1.00785, -60.3951,   1
    56,'STA E       ', 500.0000,1,     0.000,     0.000,   2,   1,1.02602, -58.0957,   1
    57,'STA F       ', 230.0000,1,     0.000,     0.000,   2,   1,1.00980, -62.4306,   1
    58,'STA G       ', 230.0000,1,     0.000,     0.000,   2,   1,1.00795, -61.6285,   1
    59,'STA J       ', 230.0000,1,     0.000,     0.000,   2,   1,1.01295, -58.9603,   1
    60,'SYLMARLA    ', 230.0000,1,     0.000,  2146.000,   2,   1,1.01890, -56.9214,   1
    61,'SYLMAR S    ', 230.0000,1,     0.000,     0.000,   2,   1,1.00172, -57.9773,   1
    62,'VALLEY      ', 230.0000,1,     0.000,     0.000,   2,   1,1.01126, -59.1617,   1
    63,'VICTORVL    ', 287.0000,1,     0.000,  -108.000,   2,   1,1.03621, -55.1290,   1
    64,'VICTORVL    ', 500.0000,1,     0.000,     0.000,   2,   1,1.04304, -53.2599,   1
    65,'MONTA G1    ',  20.0000,2,     0.000,     0.000,   1,   1,1.00000,  31.4608,   1
    66,'MONTANA     ', 500.0000,1,     0.000,     0.000,   1,   1,1.05921,  23.1476,   1
    67,'BIG EDDY    ', 115.0000,1,     0.000,     0.000,   1,   1,1.04632, -24.1193,   1
    68,'BIG EDDY    ', 230.0000,1,     0.000,   576.850,   1,   1,1.04532, -21.4252,   1
    69,'BIG EDDY    ', 500.0000,1,     0.000,     0.000,   1,   1,1.06827, -19.9018,   1
    70,'DALLES21    ',  13.8000,2,     0.000,     0.000,   1,   1,1.05500, -14.7280,   1
    71,'CELILO      ', 230.0000,1,     0.000,   792.000,   1,   1,1.04006, -21.9723,   1
    72,'CELILOCA    ', 500.0000,1,     0.000,   462.000,   1,   1,1.06862, -20.0281,   1
    73,'COLSTRP     ', 500.0000,1,     0.000,     0.000,   1,   1,1.06705,  -9.5246,   1
    74,'COULEE      ', 500.0000,1,     0.000,     0.000,   1,   1,1.08346, -13.1942,   1
    75,'GARRISON    ', 500.0000,1,     0.000,     0.000,   1,   1,1.02759, -22.1245,   1
    76,'JOHN DAY    ', 500.0000,1,     0.000,  1019.350,   1,   1,1.06406, -17.3312,   1
    77,'JOHN DAY    ',  13.8000,3,     0.000,     0.000,   1,   1,1.00000,   0.0000,   1
    78,'HANFORD     ', 500.0000,1,     0.000,   550.000,   1,   1,1.06266, -13.1329,   1
    79,'NORTH G3    ',  20.0000,2,     0.000,     0.000,   1,   1,1.00000,  10.9062,   1
    80,'NORTH       ', 500.0000,1,     0.000,  1200.000,   1,   1,1.05804,  -3.4591,   1
    81,'BURNS       ', 500.0000,1,     0.000,  -220.000,   1,   1,1.03191, -27.8761,   1
    82,'GRIZZLY     ', 500.0000,1,     0.000,  -674.000,   1,   1,1.04960, -24.9860,   1
    83,'MALIN       ', 500.0000,1,     0.000,  -110.000,   1,   1,1.03701, -32.2701,   1
    84,'MIDPOINT    ', 500.0000,1,     0.000,  -220.000,   1,   1,1.05825, -16.0131,   1
    85,'MIDPOINT    ', 345.0000,1,     0.000,  -870.000,   1,   1,0.99702, -13.0597,   1
    86,'SUMMER L    ', 500.0000,1,     0.000,     0.000,   1,   1,1.04207, -26.7454,   1
    87,'GRIZZLY1    ', 500.0000,1,     0.000,     0.000,   1,   1,1.05227, -27.4984,   1
    88,'GRIZZLY2    ', 500.0000,1,     0.000,     0.000,   1,   1,1.04937, -23.2216,   1
    89,'MALIN1      ', 500.0000,1,     0.000,     0.000,   1,   1,1.03588, -22.3178,   1
    90,'MALIN2      ', 500.0000,1,     0.000,     0.000,   1,   1,1.04433, -28.4432,   1
    91,'GRIZZLY3    ', 500.0000,1,     0.000,     0.000,   1,   1,1.06285, -30.4335,   1
    92,'GRIZZLY4    ', 500.0000,1,     0.000,     0.000,   1,   1,1.05083, -25.0711,   1
    93,'GRIZZLY5    ', 500.0000,1,     0.000,     0.000,   1,   1,1.05124, -31.2044,   1
    94,'GRIZZLY6    ', 500.0000,1,     0.000,     0.000,   1,   1,1.05226, -25.8201,   1
    95,'GRIZZLY7    ', 500.0000,1,     0.000,     0.000,   1,   1,1.06235, -30.7377,   1
    96,'GRIZZLY8    ', 500.0000,1,     0.000,     0.000,   1,   1,1.05053, -25.0715,   1
    97,'GRIZZLY9    ', 500.0000,1,     0.000,     0.000,   1,   1,1.05047, -31.5519,   1
    98,'GRIZZLYA    ', 500.0000,1,     0.000,     0.000,   1,   1,1.05154, -25.8606,   1
    99,'BURNS1      ', 500.0000,1,     0.000,     0.000,   1,   1,0.97031,  -5.2489,   1
   100,'CORTINA     ', 200.0000,1,     0.000,     0.000,   3,   1,1.11992, -46.4373,   1
   101,'COTWDPGE    ', 200.0000,1,     0.000,     0.000,   3,   1,1.12764, -41.9905,   1
   102,'DIABLO      ', 500.0000,1,     0.000,     0.000,   2,   1,1.04026, -57.3676,   1
   103,'DIABLO1     ',  25.0000,2,     0.000,     0.000,   2,   1,0.98000, -53.4959,   1
   104,'GATES       ', 500.0000,1,     0.000,   -91.000,   2,   1,1.02858, -58.9377,   1
   105,'GLENN       ', 200.0000,1,     0.000,     0.000,   3,   1,1.13131, -46.0959,   1
   106,'LOGAN CR    ', 200.0000,1,     0.000,     0.000,   3,   1,1.13106, -46.3710,   1
   107,'LOSBANOS    ', 500.0000,1,     0.000,     0.000,   2,   1,1.02876, -60.9496,   1
   108,'MIDWAY      ', 500.0000,1,     0.000,  -327.000,   2,   1,1.03806, -59.9184,   1
   109,'MIDWAY      ', 200.0000,1,     0.000,  -130.000,   2,   1,1.14120, -63.7809,   1
   110,'MOSSLAND    ', 500.0000,1,     0.000,     0.000,   2,   1,1.02567, -61.2394,   1
   111,'OLINDA      ', 500.0000,1,     0.000,     0.000,   3,   1,1.02212, -40.7501,   1
   112,'ROUND MT    ',  20.0000,2,     0.000,     0.000,   3,   1,1.02000, -25.7222,   1
   113,'ROUND MT    ', 200.0000,1,     0.000,  -128.000,   3,   1,1.11579, -35.8135,   1
   114,'ROUND MT    ', 500.0000,1,     0.000,   -91.000,   3,   1,1.01927, -37.5432,   1
   115,'TABLE MT    ', 500.0000,1,     0.000,   -91.000,   3,   1,0.99928, -42.0037,   1
   116,'TEVATR      ',  20.0000,2,     0.000,     0.000,   3,   1,1.05000, -47.7593,   1
   117,'TEVATR      ', 200.0000,1,     0.000,   -32.000,   3,   1,1.11915, -51.6541,   1
   118,'TEVATR2     ',  20.0000,2,     0.000,     0.000,   3,   1,1.00000, -41.1195,   1
   119,'TEVATR      ', 500.0000,1,     0.000,  1500.000,   3,   1,0.98834, -49.4138,   1
   120,'OLINDA1     ', 500.0000,1,     0.000,     0.000,   3,   1,1.03217, -33.1214,   1
   121,'OLINDA2     ', 500.0000,1,     0.000,     0.000,   3,   1,1.00128, -48.3318,   1
   122,'OLINDA3     ', 500.0000,1,     0.000,     0.000,   3,   1,1.01184, -40.4692,   1
   123,'OLINDA4     ', 500.0000,1,     0.000,     0.000,   3,   1,0.98022, -57.5423,   1
   124,'ROUND1      ', 500.0000,1,     0.000,     0.000,   3,   1,1.02383, -31.1979,   1
   125,'ROUND2      ', 500.0000,1,     0.000,     0.000,   3,   1,0.99930, -46.3529,   1
   126,'ROUND3      ', 500.0000,1,     0.000,     0.000,   3,   1,1.02383, -31.1979,   1
   127,'ROUND4      ', 500.0000,1,     0.000,     0.000,   3,   1,0.99930, -46.3529,   1
   128,'TABLE1      ', 500.0000,1,     0.000,     0.000,   3,   1,0.99556, -35.2852,   1
   129,'TABLE2      ', 500.0000,1,     0.000,     0.000,   3,   1,0.99530, -56.0955,   1
   130,'TABLE3      ', 500.0000,1,     0.000,     0.000,   3,   1,1.00119, -36.9030,   1
   131,'TABLE4      ', 500.0000,1,     0.000,     0.000,   3,   1,0.99112, -51.9842,   1
   132,'TEVATR1     ', 500.0000,1,     0.000,     0.000,   2,   1,0.97305, -47.1931,   1
   133,'TEVATR2     ', 500.0000,1,     0.000,     0.000,   2,   1,1.04698, -63.3542,   1
   134,'TEVATR3     ', 500.0000,1,     0.000,     0.000,   2,   1,0.96652, -45.1443,   1
   135,'GATES1      ', 500.0000,1,     0.000,     0.000,   2,   1,1.04281, -61.4334,   1
   136,'DEVERS      ', 500.0000,1,     0.000,     0.000,   2,   1,1.02980, -56.4480,   1
   137,'EAGLROCK    ', 230.0000,1,     0.000,     0.000,   2,   1,0.97564, -60.8351,   1
   138,'ELDORADO    ',  20.0000,2,     0.000,     0.000,   2,   1,1.02000, -37.7202,   1
   139,'ELDORADO    ', 500.0000,1,     0.000,  -319.000,   2,   1,1.04646, -44.8414,   1
   140,'LITEHIPE    ',  20.0000,2,     0.000,     0.000,   2,   1,0.91743, -50.3847,   1
   141,'LITEHIPE    ',  12.4700,1,     0.000,     0.000,   2,   1,0.91914, -57.4900,   1
   142,'LUGO        ', 500.0000,1,     0.000,     0.000,   2,   1,1.04036, -57.3883,   1
   143,'MESA CAL    ', 230.0000,1,     0.000,     0.000,   2,   1,0.94776, -60.8762,   1
   144,'MIRALOMA    ',  20.0000,2,     0.000,     0.000,   2,   1,1.05000, -57.0732,   1
   145,'MIRALOMA    ', 500.0000,1,     0.000,   400.000,   2,   1,1.02866, -61.3333,   1
   146,'MIRALOMA    ', 230.0000,1,     0.000,     0.000,   2,   1,1.02215, -61.3065,   1
   147,'MOHAVE      ', 500.0000,1,     0.000,  -196.000,   2,   1,1.06609, -40.9199,   1
   148,'MOHAV1CC    ',  22.0000,2,     0.000,     0.000,   2,   1,1.05000, -32.6232,   1
   149,'PARDEE      ',  20.0000,2,     0.000,     0.000,   2,   1,1.01000, -49.1979,   1
   150,'PARDEE      ', 230.0000,1,     0.000,     0.000,   2,   1,0.99119, -61.4517,   1
   151,'SERRANO     ', 500.0000,1,     0.000,     0.000,   2,   1,1.02924, -62.0239,   1
   152,'VALLEY      ', 500.0000,1,     0.000,     0.000,   2,   1,1.02844, -60.2677,   1
   153,'VINCENT     ', 500.0000,1,     0.000,     0.000,   2,   1,1.04053, -59.9997,   1
   154,'VINCENT     ', 230.0000,1,     0.000,  -190.000,   2,   1,0.97326, -62.0758,   1
   155,'CAMP WIL    ', 345.0000,1,     0.000,   -60.000,   1,   1,1.03403, -21.4000,   1
   156,'BENLOMND    ', 345.0000,1,     0.000,     0.000,   1,   1,1.03525, -21.2441,   1
   157,'BENLOMND    ', 230.0000,1,     0.000,     0.000,   1,   1,1.03847, -22.1413,   1
   158,'EMERY       ', 345.0000,1,     0.000,  -220.000,   1,   1,1.03407, -14.0200,   1
   159,'EMERY       ',  20.0000,2,     0.000,     0.000,   1,   1,1.05000,  -9.3277,   1
   160,'MONA        ', 345.0000,1,     0.000,     0.000,   1,   1,1.04577, -21.5042,   1
   161,'NAUGHTON    ', 230.0000,1,     0.000,     0.000,   1,   1,1.04216, -18.6874,   1
   162,'NAUGHT      ',  20.0000,2,     0.000,     0.000,   1,   1,1.00000, -15.8859,   1
   163,'PINTO PS    ', 345.0000,1,     0.000,     0.000,   1,   1,1.03839, -17.4582,   1
   164,'PINTO       ', 345.0000,1,     0.000,   -18.000,   1,   1,1.04319, -17.1444,   1
   165,'SPAN FRK    ', 345.0000,1,     0.000,     0.000,   1,   1,1.02738, -20.1048,   1
   166,'SIGURD      ', 345.0000,1,     0.000,   -50.000,   1,   1,1.04477, -19.9417,   1
   167,'TERMINAL    ', 345.0000,1,     0.000,     0.000,   1,   1,1.02966, -22.0966,   1
   168,'MALIN3      ', 500.0000,1,     0.000,     0.000,   3,   1,1.04266, -28.1674,   1
   169,'MALIN4      ', 500.0000,1,     0.000,     0.000,   3,   1,1.01434, -41.7888,   1
   170,'MALIN5      ', 500.0000,1,     0.000,     0.000,   3,   1,1.04328, -27.3004,   1
   171,'MALIN6      ', 500.0000,1,     0.000,     0.000,   3,   1,1.01587, -41.8211,   1
   172,'MALIN7      ', 500.0000,1,     0.000,     0.000,   3,   1,1.03990, -25.7859,   1
   173,'MALIN8      ', 500.0000,1,     0.000,     0.000,   3,   1,1.02173, -47.3654,   1
   174,'MIDWAY1     ', 500.0000,1,     0.000,     0.000,   2,   1,1.02551, -59.8501,   1
   175,'MIDWAY2     ', 500.0000,1,     0.000,     0.000,   2,   1,1.03395, -60.0672,   1
   176,'MIDWAY3     ', 500.0000,1,     0.000,     0.000,   2,   1,1.03806, -59.9184,   1
   177,'MIDWAY4     ', 500.0000,1,     0.000,     0.000,   2,   1,1.04053, -59.9997,   1
   178,'MIDWAY5     ', 500.0000,1,     0.000,     0.000,   2,   1,1.02497, -59.8534,   1
   179,'MIDWAY6     ', 500.0000,1,     0.000,     0.000,   2,   1,1.03640, -60.0572,   1
   180,'BURNS2      ', 500.0000,1,     0.000,  -220.000,   1,   1,0.98432, -17.2148,   1
 0 /End of Bus data, Begin Load data
     2,'BL',1,   1,   1,     0.000,     0.000,     0.000,     0.000,  1750.000,    56.000,   1
     4,'BL',1,   1,   1,     0.000,     0.000,     0.000,     0.000,   100.000,     0.000,   1
     5,'BL',1,   1,   1,     0.000,     0.000,     0.000,     0.000,  2350.000,   127.000,   1
     6,'BL',1,   1,   1,     0.000,     0.000,     0.000,     0.000,   100.000,     0.000,   1
     8,'BL',1,   1,   1,     0.000,     0.000,     0.000,     0.000,   239.000,    56.000,   1
     9,'BL',1,   1,   1,     0.000,     0.000,     0.000,     0.000,   100.000,     0.000,   1
    10,'BL',1,   1,   1,     0.000,     0.000,     0.000,     0.000,   139.700,   -23.800,   1
    11,'BL',1,   1,   1,     0.000,     0.000,     0.000,     0.000,   100.000,     0.000,   1
    12,'BL',1,   2,   1,     0.000,     0.000,     0.000,     0.000,    90.000,   -70.000,   1
    13,'BL',1,   2,   1,     0.000,     0.000,     0.000,     0.000,   100.000,     0.000,   1
    15,'BL',1,   2,   1,     0.000,     0.000,     0.000,     0.000,   100.000,     0.000,   1
    16,'BL',1,   2,   1,     0.000,     0.000,     0.000,     0.000,   793.400,  -207.000,   1
    17,'BL',1,   1,   1,     0.000,     0.000,     0.000,     0.000,   840.000,    -5.000,   1
    18,'BL',1,   1,   1,     0.000,     0.000,     0.000,     0.000,   100.000,     0.000,   1
    19,'BL',1,   2,   1,     0.000,     0.000,     0.000,     0.000,   617.000,    69.000,   1
    30,'BL',1,   1,   1,     0.000,     0.000,     0.000,     0.000,   100.000,     0.000,   1
    31,'BL',1,   1,   1,     0.000,     0.000,     0.000,     0.000,  4400.000, -1000.000,   1
    34,'BL',1,   1,   1,     0.000,     0.000,     0.000,     0.000,  3600.000,  -700.000,   1
    35,'BL',1,   1,   1,     0.000,     0.000,     0.000,     0.000,   100.000,     0.000,   1
    36,'BL',1,   1,   1,     0.000,     0.000,     0.000,     0.000,   100.000,     0.000,   1
    37,'BL',1,   2,   1,     0.000,     0.000,     0.000,     0.000, -1862.000,  -971.000,   1
    40,'BL',1,   2,   1,     0.000,     0.000,     0.000,     0.000,   100.000,     0.000,   1
    41,'BL',1,   2,   1,     0.000,     0.000,     0.000,     0.000,   135.000,   -27.000,   1
    43,'BL',1,   2,   1,     0.000,     0.000,     0.000,     0.000,   100.000,     0.000,   1
    44,'BL',1,   1,   1,     0.000,     0.000,     0.000,     0.000,  2053.000,  -907.100,   1
    45,'BL',1,   1,   1,     0.000,     0.000,     0.000,     0.000,   100.000,     0.000,   1
    46,'BL',1,   2,   1,     0.000,     0.000,     0.000,     0.000,   -72.800,    17.000,   1
    47,'BL',1,   2,   1,     0.000,     0.000,     0.000,     0.000,   100.000,     0.000,   1
    48,'BL',1,   2,   1,     0.000,     0.000,     0.000,     0.000,   121.000,   -25.000,   1
    50,'BL',1,   2,   1,     0.000,     0.000,     0.000,     0.000,   320.000,   -65.000,   1
    51,'BL',1,   2,   1,     0.000,     0.000,     0.000,     0.000,   237.200,    63.200,   1
    54,'BL',1,   2,   1,     0.000,     0.000,     0.000,     0.000,   138.000,   -28.000,   1
    55,'BL',1,   2,   1,     0.000,     0.000,     0.000,     0.000,   807.800,  -132.100,   1
    57,'BL',1,   2,   1,     0.000,     0.000,     0.000,     0.000,   117.000,   -24.000,   1
    58,'BL',1,   2,   1,     0.000,     0.000,     0.000,     0.000,   121.000,   -25.000,   1
    59,'BL',1,   2,   1,     0.000,     0.000,     0.000,     0.000,   887.700,     6.200,   1
    60,'BL',1,   2,   1,     0.000,     0.000,     0.000,     0.000, -2771.000, -1654.000,   1
    61,'BL',1,   2,   1,     0.000,     0.000,     0.000,     0.000,   401.000,   -80.600,   1
    62,'BL',1,   2,   1,     0.000,     0.000,     0.000,     0.000,   205.200,   -17.600,   1
    63,'BL',1,   2,   1,     0.000,     0.000,     0.000,     0.000,  -129.000,   -32.200,   1
    65,'BL',1,   1,   1,     0.000,     0.000,     0.000,     0.000,   100.000,     0.000,   1
    66,'BL',1,   1,   1,     0.000,     0.000,     0.000,     0.000,  1700.000,  -300.000,   1
    67,'BL',1,   1,   1,     0.000,     0.000,     0.000,     0.000,   160.000,   -31.250,   1
    68,'BL',1,   1,   1,     0.000,     0.000,     0.000,     0.000,   -67.500,  -160.000,   1
    69,'BL',1,   1,   1,     0.000,     0.000,     0.000,     0.000,   -44.200,   -22.000,   1
    70,'BL',1,   1,   1,     0.000,     0.000,     0.000,     0.000,   100.000,     0.000,   1
    71,'BL',1,   1,   1,     0.000,     0.000,     0.000,     0.000,  3137.000, -1681.000,   1
    73,'BL',1,   1,   1,     0.000,     0.000,     0.000,     0.000, -1525.000,    50.000,   1
    75,'BL',1,   1,   1,     0.000,     0.000,     0.000,     0.000,  2584.000,  -394.000,   1
    76,'BL',1,   1,   1,     0.000,     0.000,     0.000,     0.000,  3200.000, -1100.000,   1
    77,'BL',1,   1,   1,     0.000,     0.000,     0.000,     0.000,   100.000,     0.000,   1
    78,'BL',1,   1,   1,     0.000,     0.000,     0.000,     0.000,  3500.000,  -500.000,   1
    79,'BL',1,   1,   1,     0.000,     0.000,     0.000,     0.000,   100.000,     0.000,   1
    80,'BL',1,   1,   1,     0.000,     0.000,     0.000,     0.000,  5000.000,  -400.000,   1
    82,'BL',1,   1,   1,     0.000,     0.000,     0.000,     0.000,   -66.600,    97.000,   1
    83,'BL',1,   1,   1,     0.000,     0.000,     0.000,     0.000,  -339.000,   119.000,   1
    85,'BL',1,   1,   1,     0.000,     0.000,     0.000,     0.000,   610.000,   414.000,   1
   100,'BL',1,   3,   1,     0.000,     0.000,     0.000,     0.000,   -43.300,   -20.000,   1
   101,'BL',1,   3,   1,     0.000,     0.000,     0.000,     0.000,   210.400,    77.000,   1
   102,'BL',1,   2,   1,     0.000,     0.000,     0.000,     0.000,    50.000,   -25.000,   1
   103,'BL',1,   2,   1,     0.000,     0.000,     0.000,     0.000,   100.000,     0.000,   1
   104,'BL',1,   2,   1,     0.000,     0.000,     0.000,     0.000,   305.000,     7.600,   1
   105,'BL',1,   3,   1,     0.000,     0.000,     0.000,     0.000,    27.500,     0.100,   1
   106,'BL',1,   3,   1,     0.000,     0.000,     0.000,     0.000,     8.010,     0.000,   1
   107,'BL',1,   2,   1,     0.000,     0.000,     0.000,     0.000,   265.000,   -14.000,   1
   108,'BL',1,   2,   1,     0.000,     0.000,     0.000,     0.000,    55.600,   329.000,   1
   109,'BL',1,   2,   1,     0.000,     0.000,     0.000,     0.000,   777.600,   -32.600,   1
   110,'BL',1,   2,   1,     0.000,     0.000,     0.000,     0.000,    40.000,   -21.500,   1
   111,'BL',1,   3,   1,     0.000,     0.000,     0.000,     0.000,  -189.000,   -61.500,   1
   112,'BL',1,   3,   1,     0.000,     0.000,     0.000,     0.000,   100.000,     0.000,   1
   113,'BL',1,   3,   1,     0.000,     0.000,     0.000,     0.000,   148.000,     0.000,   1
   115,'BL',1,   3,   1,     0.000,     0.000,     0.000,     0.000,    -0.700,  -118.500,   1
   116,'BL',1,   3,   1,     0.000,     0.000,     0.000,     0.000,   100.000,     0.000,   1
   117,'BL',1,   3,   1,     0.000,     0.000,     0.000,     0.000,   884.000,   -54.800,   1
   118,'BL',1,   3,   1,     0.000,     0.000,     0.000,     0.000,   100.000,     0.000,   1
   119,'BL',1,   3,   1,     0.000,     0.000,     0.000,     0.000,  5661.000, -3491.000,   1
   136,'BL',1,   2,   1,     0.000,     0.000,     0.000,     0.000,   856.000,   -19.600,   1
   137,'BL',1,   2,   1,     0.000,     0.000,     0.000,     0.000,   175.000,   -18.000,   1
   138,'BL',1,   2,   1,     0.000,     0.000,     0.000,     0.000,   100.000,     0.000,   1
   139,'BL',1,   2,   1,     0.000,     0.000,     0.000,     0.000,   902.300,    11.400,   1
   140,'BL',1,   2,   1,     0.000,     0.000,     0.000,     0.000,   100.000,     0.000,   1
   141,'BL',1,   2,   1,     0.000,     0.000,     0.000,     0.000,  3000.000,  -602.300,   1
   142,'BL',1,   2,   1,     0.000,     0.000,     0.000,     0.000,   204.200,    28.200,   1
   143,'BL',1,   2,   1,     0.000,     0.000,     0.000,     0.000,   377.400,   -64.500,   1
   144,'BL',1,   2,   1,     0.000,     0.000,     0.000,     0.000,   100.000,     0.000,   1
   145,'BL',1,   2,   1,     0.000,     0.000,     0.000,     0.000,  3098.000, -1189.000,   1
   148,'BL',1,   2,   1,     0.000,     0.000,     0.000,     0.000,   100.000,     0.000,   1
   149,'BL',1,   2,   1,     0.000,     0.000,     0.000,     0.000,   100.000,     0.000,   1
   150,'BL',1,   2,   1,     0.000,     0.000,     0.000,     0.000,  3118.000,   -78.000,   1
   151,'BL',1,   2,   1,     0.000,     0.000,     0.000,     0.000,  1230.000,   -72.800,   1
   152,'BL',1,   2,   1,     0.000,     0.000,     0.000,     0.000,   406.000,   -41.000,   1
   154,'BL',1,   2,   1,     0.000,     0.000,     0.000,     0.000,  1066.000,    10.800,   1
   155,'BL',1,   1,   1,     0.000,     0.000,     0.000,     0.000,   457.700,   -81.700,   1
   156,'BL',1,   1,   1,     0.000,     0.000,     0.000,     0.000,    33.900,   -11.900,   1
   157,'BL',1,   1,   1,     0.000,     0.000,     0.000,     0.000,   148.000,     7.900,   1
   158,'BL',1,   1,   1,     0.000,     0.000,     0.000,     0.000,   116.100,   -38.400,   1
   159,'BL',1,   1,   1,     0.000,     0.000,     0.000,     0.000,   100.000,     0.000,   1
   160,'BL',1,   1,   1,     0.000,     0.000,     0.000,     0.000,   -62.000,   -12.800,   1
   161,'BL',1,   1,   1,     0.000,     0.000,     0.000,     0.000,   255.000,  -100.000,   1
   162,'BL',1,   1,   1,     0.000,     0.000,     0.000,     0.000,   100.000,     0.000,   1
   164,'BL',1,   1,   1,     0.000,     0.000,     0.000,     0.000,    31.600,   -11.500,   1
   165,'BL',1,   1,   1,     0.000,     0.000,     0.000,     0.000,   141.200,   -71.400,   1
   166,'BL',1,   1,   1,     0.000,     0.000,     0.000,     0.000,   379.000,    43.000,   1
   167,'BL',1,   1,   1,     0.000,     0.000,     0.000,     0.000,   185.000,   -78.500,   1
 0 /End of Load data, Begin Generator data
     4,'1 ',   800.000,   103.049,   300.000,  -300.000,1.04000,     0,   914.000,   0.00000,   0.14500,   0.00000,   0.00000,1.00000,1,  100.0,  9999.000,     0.000,   1,1.0000
     6,'1 ',  1048.000,   -97.834,   400.000,  -400.000,0.95000,     0,  1488.000,   0.00000,   0.14000,   0.00000,   0.00000,1.00000,1,  100.0,  9999.000,     0.000,   1,1.0000
     9,'1 ',  2160.000,   -50.344,   700.000,  -500.000,1.00000,     0,  2458.000,   0.00000,   0.15500,   0.00000,   0.00000,1.00000,1,  100.0,  9999.000,     0.000,   1,1.0000
    11,'1 ',  2050.000,   495.380,   900.000,  -900.000,1.00000,     0,  3000.000,   0.00000,   0.14000,   0.00000,   0.00000,1.00000,1,  100.0,  9999.000,     0.000,   1,1.0000
    13,'1 ',  1690.000,   221.566,   700.000,  -280.000,1.00000,     0,  3540.000,   0.00000,   0.13000,   0.00000,   0.00000,1.00000,1,  100.0,  9999.000,     0.000,   1,1.0000
    15,'1 ',  2640.000,   421.964,  1300.000,  -900.000,0.96000,     0,  3118.000,   0.00000,   0.22500,   0.00000,   0.00000,1.00000,1,  100.0,  9999.000,     0.000,   1,1.0000
    18,'1 ',   962.000,   150.035,   300.000,  -300.000,1.00000,     0,  2054.000,   0.00000,   0.14500,   0.00000,   0.00000,1.00000,1,  100.0,  9999.000,     0.000,   1,1.0000
    30,'1 ',  4450.000,  1009.648,  4000.000, -4000.000,1.00000,     0,  9004.000,   0.00000,   0.09000,   0.00000,   0.00000,1.00000,1,  100.0,  9999.000,     0.000,   1,1.0000
    35,'1 ',  4480.000,  1140.099,  5320.000, -3500.000,1.02000,     0,  6100.000,   0.00000,   0.23900,   0.00000,   0.00000,1.00000,1,  100.0,  9999.000,     0.000,   1,1.0000
    36,'1 ',  1640.000,   317.042,   600.000,  -525.000,1.00900,     0,  1770.000,   0.00000,   0.15500,   0.00000,   0.00000,1.00000,1,  100.0,  9999.000,     0.000,   1,1.0000
    40,'1 ',   200.000,     4.480,   268.000,  -134.000,1.02000,     0,   500.000,   0.00000,   0.08900,   0.00000,   0.00000,1.00000,1,  100.0,  9999.000,     0.000,   1,1.0000
    43,'1 ',   325.000,   111.771,   300.000,  -220.000,1.00000,     0,   540.000,   0.00000,   0.15500,   0.00000,   0.00000,1.00000,1,  100.0,  9999.000,     0.000,   1,1.0000
    45,'1 ',  1780.000,   681.512,   850.000,  -440.000,1.05000,     0,  1982.000,   0.00000,   0.15000,   0.00000,   0.00000,1.00000,1,  100.0,  9999.000,     0.000,   1,1.0000
    47,'1 ',   110.000,    44.717,   100.000,  -100.000,1.02000,     0,   113.000,   0.00000,   0.14000,   0.00000,   0.00000,1.00000,1,  100.0,  9999.000,     0.000,   1,1.0000
    65,'1 ',  2910.000,   769.182,  1500.000, -1000.000,1.00000,     0,  3085.000,   0.00000,   0.12800,   0.00000,   0.00000,1.00000,1,  100.0,  9999.000,     0.000,   1,1.0000
    70,'1 ',  1301.000,   632.583,   992.000,  -711.000,1.05500,     0,  1199.000,   0.00000,   0.24000,   0.00000,   0.00000,1.00000,1,  100.0,  9999.000,     0.000,   1,1.0000
    77,'1 ',  7800.433,  1990.730,  2649.000, -1850.000,1.00000,     0,  5421.000,   0.00000,   0.24000,   0.00000,   0.00000,1.00000,1,  100.0,  9999.000,     0.000,   1,1.0000
    79,'1 ',  9950.000,  1540.068,  5780.000, -2000.000,1.00000,     0, 13000.000,   0.00000,   0.12700,   0.00000,   0.00000,1.00000,1,  100.0,  9999.000,     0.000,   1,1.0000
   103,'1 ',   765.000,   -84.630,   330.000,  -310.000,0.98000,     0,  1685.000,   0.00000,   0.25000,   0.00000,   0.00000,1.00000,1,  100.0,  9999.000,     0.000,   1,1.0000
   112,'1 ',  1057.000,    64.854,   400.000,  -400.000,1.02000,     0,  1022.000,   0.00000,   0.14000,   0.00000,   0.00000,1.00000,1,  100.0,  9999.000,     0.000,   1,1.0000
   116,'1 ',   594.000,   244.484,   600.000,  -300.000,1.05000,     0,   895.000,   0.00000,   0.21500,   0.00000,   0.00000,1.00000,1,  100.0,  9999.000,     0.000,   1,1.0000
   118,'1 ',  3467.000,  1888.548,  2500.000, -1000.000,1.00000,     0,  6840.000,   0.00000,   0.14000,   0.00000,   0.00000,1.00000,1,  100.0,  9999.000,     0.000,   1,1.0000