   70 'GENROU'    1   4.0000   0.0200
      0.0000   0.0500   3.0000   0.0000   0.8900   0.5000
      0.3700   0.5000   0.2965   0.2400   1.0000   1.2000/
   70  'EXDC2'    1      0.0200  183.0000    0.0600    0.0200    0.0000    2.0000
     -2.0000    0.0000    0.5000    0.0500    1.0000    0.0000    2.6250    0.0350
      3.5000    0.5400/
   70  'TGOV1'    1      0.0100    0.2000    1.5000   -1.5000    2.6160    8.7200
      0.0000/
   77 'GENROU'    1   8.0000   0.0300
      0.0000   0.0600   3.6700   0.0000   0.9300   0.6510
      0.3570   0.6510   0.2725   0.2400   1.0000   1.2000/
   77  'EXDC2'    1      0.0200   40.0000    0.0600    0.0200    0.0000    3.0000
     -3.0000    0.0000    0.1300    0.0500    1.5000    0.0000    3.3750    0.0350
      4.5000    0.3000/
   77  'TGOV1'    1      0.0100    0.2000    1.5000   -1.5000    2.6160    8.7200
      0.0000/
   36 'GENROU'    1   4.1000   0.0330
      0.5600   0.0620   2.3200   0.0000   2.0700   1.9900
      0.2800   0.4900   0.2150   0.1550   1.0000   1.2000/
   36  'EXDC2'    1      0.0200   50.0000    0.0200    0.0200    0.0000    3.0000
     -3.0000    0.0000    0.6420    0.1030    0.9940    0.0000    2.5950    0.0450
      3.4600    0.3560/
   36  'TGOV1'    1      0.0100    0.2000    1.5000   -1.5000    2.6160    8.7200
      0.0000/
   30 'GENROU'    1   8.0000   0.0500
      0.0000   0.0800   4.3400   0.0000   0.9000   0.6000
      0.2500   0.6000   0.1850   0.0900   1.0000   1.2000/
   30  'EXDC2'    1      0.0200   40.0000    0.0500    0.0200    0.0000    3.0000
     -3.0000    0.0000    0.6000    0.0700    1.3000    0.0000    2.8200    0.0350
      3.7600    0.3200/
   30  'TGOV1'    1      0.0100    0.2000    1.5000   -1.5000    2.6160    8.7200
      0.0000/
   40 'GENROU'    1  10.8000   0.0280
      0.0000   0.1600   6.4100   0.0000   0.9950   0.5680
      0.1950   0.5680   0.1725   0.0890   1.0000   1.2000/
   40  'EXDC2'    1      0.0200   40.0000    0.2000    0.0200    0.0000    2.0000
     -2.0000    0.0000    0.5450    0.0900    1.0000    0.0000    3.0975    0.0350
      4.1300    0.4100/
   40  'TGOV1'    1      0.0100    0.2000    1.5000   -1.5000    2.6160    8.7200
      0.0000/
   35 'GENROU'    1   4.6000   0.0400
      0.3700   0.1000   2.9500   0.0000   1.8250   1.7800
      0.2910   0.4400   0.2500   0.2390   1.0000   1.2000/
   35  'EXDC2'    1      0.0200  200.0000    0.0500    0.0200    0.0000   14.0000
    -14.0000    0.0000    0.5120    0.0700    1.8000    0.0000    3.9825    1.0490
      5.3100    3.0480/
   35  'TGOV1'    1      0.0100    0.2000    1.5000   -1.5000    2.6160    8.7200
      0.0000/
    4 'GENROU'    1   3.9000   0.0320
      0.5400   0.0620   2.6400   0.0000   1.8600   1.7800
      0.2500   0.4530   0.1960   0.1450   1.0000   1.2000/
    4  'EXDC2'    1      0.0200  183.0000    0.0600    0.0200    0.0000    2.0000
     -2.0000    0.0000    0.5000    0.0500    1.0000    0.0000    2.6250    0.0350
      3.5000    0.5400/
    4  'TGOV1'    1      0.0100    0.2000    1.5000   -1.5000    2.6160    8.7200
      0.0000/
    6 'GENROU'    1   4.0000   0.0320
      0.5200   0.0630   2.6100   0.0000   1.8100   1.7300
      0.2450   0.5100   0.1905   0.1400   1.0000   1.2000/
    6  'EXDC2'    1      0.0200  183.0000    0.0600    0.0200    0.0000    2.0000
     -2.0000    0.0000    0.5000    0.0500    1.0000    0.0000    2.6250    0.0350
      3.5000    0.5400/
    6  'TGOV1'    1      0.0100    0.2000    1.5000   -1.5000    2.6160    8.7200
      0.0000/
  103 'GENROU'    1   6.1200   0.0520
      1.5000   0.1440   3.4600   0.0000   2.1290   2.0740
      0.4670   1.2700   0.3100   0.2500   1.0000   1.2000/
  103  'EXDC2'    1      0.0200   50.0000    0.0200    0.0200    0.0000    3.0000
     -3.0000    0.0000    0.6420    0.1030    0.9940    0.0000    2.5950    0.0450
      3.4600    0.3560/
  103  'TGOV1'    1      0.0100    0.2000    1.5000   -1.5000    2.6160    8.7200
      0.0000/
  138 'GENROU'    1   7.8000   0.0600
      0.0000   0.1100   6.0700   0.0000   0.7500   0.5300
      0.3200   0.5300   0.3100   0.2150   1.0000   1.2000/
  138  'EXDC2'    1      0.0200   50.0000    0.0200    0.0200    0.0000    3.0000
     -3.0000    0.0000    0.6420    0.1030    0.9940    0.0000    2.5950    0.0450
      3.4600    0.3560/
  138  'TGOV1'    1      0.0100    0.2000    1.5000   -1.5000    2.6160    8.7200
      0.0000/
  159 'GENROU'    1   3.9000   0.0320
      0.4900   0.0620   2.8200   0.0000   1.6400   1.5700
      0.2400   0.4300   0.1850   0.1300   1.0000   1.2000/
  159  'EXDC2'    1      0.0200   50.0000    0.0200    0.0200    0.0000    3.0000
     -3.0000    0.0000    0.6420    0.1030    0.9940    0.0000    2.5950    0.0450
      3.4600    0.3560/
  159  'TGOV1'    1      0.0100    0.2000    1.5000   -1.5000    2.6160    8.7200
      0.0000/
    9 'GENROU'    1   8.4000   0.0350
      0.4600   0.0700   3.4200   0.0000   1.7600   1.5800
      0.2850   0.4850   0.2050   0.1550   1.0000   1.2000/
    9  'EXDC2'    1      0.0200   50.0000    0.0200    0.0200    0.0000    3.0000
     -3.0000    0.0000    0.6420    0.1030    0.9940    0.0000    2.5950    0.0450
      3.4600    0.3560/
    9  'TGOV1'    1      0.0100    0.2000    1.5000   -1.5000    2.6160    8.7200
      0.0000/
   11 'GENROU'    1   4.5000   0.0400
      0.5000   0.0600   2.4500   0.0000   1.7000   1.6500
      0.2500   0.5000   0.1890   0.1400   1.0000   1.2000/
   11  'EXDC2'    1      0.0200  200.0000    0.0500    0.0200    0.0000   14.0000
    -14.0000    0.0000    0.5120    0.0700    1.8000    0.0000    3.9825    1.0490
      5.3100    3.0480/
   11  'TGOV1'    1      0.0100    0.2000    1.5000   -1.5000    2.6160    8.7200
      0.0000/
   43 'GENROU'    1   4.8000   0.0370
      0.5000   0.0750   4.1300   0.0000   1.7000   1.6200
      0.2560   0.4100   0.1850   0.1550   1.0000   1.2000/
   43  'EXDC2'    1      0.0200   40.0000    0.2000    0.0200    0.0000    2.0000
     -2.0000    0.0000    0.5450    0.0900    1.0000    0.0000    3.0975    0.0350
      4.1300    0.4100/
   43  'TGOV1'    1      0.0100    0.2000    1.5000   -1.5000    2.6160    8.7200
      0.0000/
   45 'GENROU'    1   4.7000   0.0310
      0.6700   0.0610   2.8800   0.0000   1.9900   1.9000
      0.2450   0.4200   0.2000   0.1500   1.0000   1.2000/
   45  'EXDC2'    1      0.0200   50.0000    0.0200    0.0200    0.0000    3.0000
     -3.0000    0.0000    0.6420    0.1030    0.9940    0.0000    2.5950    0.0450
      3.4600    0.3560/
   45  'TGOV1'    1      0.0100    0.2000    1.5000   -1.5000    2.6160    8.7200
      0.0000/
  140 'GENROU'    1   5.3000   0.0350
      0.5000   0.0770   2.8200   0.0000   1.6200   1.5700
      0.2450   0.3760   0.1750   0.0950   1.0000   1.2000/
  140  'EXDC2'    1      0.0200   40.0000    0.0500    0.0200    0.0000    3.0000
     -3.0000    0.0000    0.6000    0.0700    1.3000    0.0000    2.8200    0.0350
      3.7600    0.3200/
  140  'TGOV1'    1      0.0100    0.2000    1.5000   -1.5000    2.6160    8.7200
      0.0000/
  144 'GENROU'    1   8.0000   0.0500
      1.5000   0.0600   2.7500   0.0000   1.9500   1.8700
      0.3400   1.0000   0.2875   0.2400   1.0000   1.2000/
  144  'EXDC2'    1      0.0200  200.0000    0.0500    0.0200    0.0000   14.0000
    -14.0000    0.0000    0.5120    0.0700    1.8000    0.0000    3.9825    1.0490
      5.3100    3.0480/
  144  'TGOV1'    1      0.0100    0.2000    1.5000   -1.5000    2.6160    8.7200
      0.0000/
  148 'GENROU'    1   8.4000   0.0350
      0.4600   0.0700   3.4900   0.0000   1.7600   1.5800
      0.2850   0.4850   0.2050   0.1550   1.0000   1.2000/
  148  'EXDC2'    1      0.0200   50.0000    0.0200    0.0200    0.0000    3.0000
     -3.0000    0.0000    0.6420    0.1030    0.9940    0.0000    2.5950    0.0450
      3.4600    0.3560/
  148  'TGOV1'    1      0.0100    0.2000    1.5000   -1.5000    2.6160    8.7200
      0.0000/
   65 'GENROU'    1   4.7800   0.0410
      0.5300   0.0670   3.3800   0.0000   1.2360   1.2220
      0.2200   0.3480   0.1760   0.1280   1.0000   1.2000/
   65  'EXDC2'    1      0.0200  200.0000    0.0500    0.0200    0.0000   14.0000
    -14.0000    0.0000    0.5120    0.0700    1.8000    0.0000    3.9825    1.0490
      5.3100    3.0480/
   65  'TGOV1'    1      0.0100    0.2000    1.5000   -1.5000    2.6160    8.7200
      0.0000/
  162 'GENROU'    1   5.2100   0.0420
      1.5000   0.0420   3.0100   0.0000   1.7980   1.7780
      0.3240   0.4500   0.2575   0.1930   1.0000   1.2000/
  162  'EXDC2'    1      0.0200  183.0000    0.0600    0.0200    0.0000    2.0000
     -2.0000    0.0000    0.5000    0.0500    1.0000    0.0000    2.6250    0.0350
      3.5000    0.5400/
  162  'TGOV1'    1      0.0100    0.2000    1.5000   -1.5000    2.6160    8.7200
      0.0000/
   13 'GENROU'    1   4.2000   0.0320
      0.6000   0.0660   3.5900   0.0000   1.7600   1.6800
      0.2200   0.4000   0.1750   0.1300   1.0000   1.2000/
   13  'EXDC2'    1      0.0200  200.0000    0.0500    0.0200    0.0000   14.0000
    -14.0000    0.0000    0.5120    0.0700    1.8000    0.0000    3.9825    1.0490
      5.3100    3.0480/
   13  'TGOV1'    1      0.0100    0.2000    1.5000   -1.5000    2.6160    8.7200
      0.0000/
   79 'GENROU'    1   7.2000   0.0430
      0.0000   0.0790   3.4600   0.0000   0.6380   0.4240
      0.2280   0.4240   0.2170   0.1270   1.0000   1.2000/
   79  'EXDC2'    1      0.0200   40.0000    0.1000    0.0200    0.0000    3.0000
     -3.0000    1.0000    0.5700    0.0500    1.2000    0.0000    3.3750    0.0350
      4.5000    0.3000/
   79  'TGOV1'    1      0.0100    0.2000    1.5000   -1.5000    2.6160    8.7200
      0.0000/
   47 'GENROU'    1   7.4000   0.0300
      0.0000   0.1600   3.8000   0.0000   0.6190   0.3650
      0.2380   0.3650   0.1600   0.1400   1.0000   1.2000/
   47  'EXDC2'    1      0.0200   40.0000    0.2000    0.0200    0.0000    2.0000
     -2.0000    0.0000    0.5450    0.0900    1.0000    0.0000    3.0975    0.0350
      4.1300    0.4100/
   47  'TGOV1'    1      0.0100    0.2000    1.5000   -1.5000    2.6160    8.7200
      0.0000/
   15 'GENROU'    1   8.2000   0.0330
      0.4800   0.0550   3.8300   0.0000   1.9800   1.8500
      0.3750   0.5670   0.2845   0.2250   1.0000   1.2000/
   15  'EXDC2'    1      0.0200  200.0000    0.0500    0.0200    0.0000   14.0000
    -14.0000    0.0000    0.5120    0.0700    1.8000    0.0000    3.9825    1.0490
      5.3100    3.0480/
   15  'TGOV1'    1      0.0100    0.2000    1.5000   -1.5000    2.6160    8.7200
      0.0000/
  149 'GENROU'    1   4.3000   0.0320
      0.4300   0.0660   3.0300   0.0000   1.7900   1.7150
      0.2200   0.4400   0.1800   0.1350   1.0000   1.2000/
  149  'EXDC2'    1      0.0200   50.0000    0.0200    0.0200    0.0000    3.0000
     -3.0000    0.0000    0.6420    0.1030    0.9940    0.0000    2.5950    0.0450
      3.4600    0.3560/
  149  'TGOV1'    1      0.0100    0.2000    1.5000   -1.5000    2.6160    8.7200
      0.0000/
  112 'GENROU'    1   4.0000   0.0510
      0.0000   0.0330   4.3900   0.0000   1.0500   0.6700
      0.3200   0.6700   0.2845   0.1400   1.0000   1.2000/
  112  'EXDC2'    1      0.0200  183.0000    0.0600    0.0200    0.0000    2.0000
     -2.0000    0.0000    0.5000    0.0500    1.0000    0.0000    2.6250    0.0350
      3.5000    0.5400/
  112  'TGOV1'    1      0.0100    0.2000    1.5000   -1.5000    2.6160    8.7200
      0.0000/
   18 'GENROU'    1   3.8000   0.0310
      0.4900   0.0580   2.6300   0.0000   1.6700   0.6100
      0.2600   0.4530   0.2050   0.1450   1.0000   1.2000/
   18  'EXDC2'    1      0.0200   50.0000    0.0200    0.0200    0.0000    3.0000
     -3.0000    0.0000    0.6420    0.1030    0.9940    0.0000    2.5950    0.0450
      3.4600    0.3560/
   18  'TGOV1'    1      0.0100    0.2000    1.5000   -1.5000    2.6160    8.7200
      0.0000/
  116 'GENROU'    1   7.8000   0.0600
      0.0000   0.1100   4.1600   0.0000   0.7500   0.5300
      0.3200   0.5300   0.3100   0.2150   1.0000   1.2000/
  116  'EXDC2'    1      0.0200  183.0000    0.0600    0.0200    0.0000    2.0000
     -2.0000    0.0000    0.5000    0.0500    1.0000    0.0000    2.6250    0.0350
      3.5000    0.5400/
  116  'TGOV1'    1      0.0100    0.2000    1.5000   -1.5000    2.6160    8.7200
      0.0000/
  118 'GENROU'    1   4.5000   0.0400
      0.5000   0.0600   3.8200   0.0000   1.7000   1.6500
      0.2500   0.5000   0.1890   0.1400   1.0000   1.2000/
  118  'EXDC2'    1      0.0200  200.0000    0.0500    0.0200    0.0000   14.0000
    -14.0000    0.0000    0.5120    0.0700    1.8000    0.0000    3.9825    1.0490
      5.3100    3.0480/
  118  'TGOV1'    1      0.0100    0.2000    1.5000   -1.5000    2.6160    8.7200
      0.0000/
