30 'GENROU' 1 10.20 0.03 1.500 0.04 4.200 0.0 1.000 0.690 0.310 0.310 0.2  0.125 0.0 0.0 /
31 'GENROU' 1 6.560 0.03 1.500 0.04 3.030 0.0 2.950 2.820 0.697 0.697 0.2  0.350 0.0 0.0 /
32 'GENROU' 1 5.700 0.03 1.500 0.04 3.580 0.0 2.495 2.370 0.531 0.531 0.2  0.304 0.0 0.0 /
33 'GENROU' 1 5.690 0.03 1.500 0.04 2.860 0.0 2.620 2.580 0.436 0.436 0.2  0.295 0.0 0.0 /
34 'GENROU' 1 5.400 0.03 0.440 0.04 2.600 0.0 6.700 6.200 1.320 1.320 0.2  0.540 0.0 0.0 /
35 'GENROU' 1 7.300 0.03 0.400 0.04 3.480 0.0 2.540 2.410 0.500 0.500 0.2  0.224 0.0 0.0 /
36 'GENROU' 1 5.660 0.03 1.500 0.04 2.640 0.0 2.950 2.920 0.490 0.490 0.2  0.322 0.0 0.0 /
37 'GENROU' 1 6.700 0.03 0.410 0.04 2.430 0.0 2.900 2.800 0.570 0.570 0.2  0.280 0.0 0.0 /
38 'GENROU' 1 4.790 0.03 1.960 0.04 3.450 0.0 2.106 2.050 0.570 0.570 0.2  0.298 0.0 0.0 /
39 'GENROU' 1 7.000 0.03 0.700 0.04 50.00 0.0 0.200 0.190 0.060 0.060 0.02 0.030 0.0 0.0 /
30 'ESDC1A' 1 0  5.00 0.060 0.0 0.0  5.0  -5.0 -0.05 0.25  0.04 1.00 0.0 1.7 0.5  3 2.0  /
31 'ESDC1A' 1 0  6.20 0.050 0.0 0.0  5.0  -5.0  0.63 0.410 0.06 0.50 0.0 3   0.66 4 0.88 /
32 'ESDC1A' 1 0  5.00 0.060 0.0 0.0  5.0  -5.0 -0.02 0.500 0.08 1.00 0.0 3   0.13 4 0.34 /
33 'ESDC1A' 1 0  5.00 0.060 0.0 0.0  5.0  -5.0 -0.05 0.500 0.08 1.00 0.0 3   0.08 4 0.31 /
34 'ESDC1A' 1 0 40.00 0.020 0.0 0.0 10.0 -10.0 -0.04 0.785 0.03 1.00 0.0 3   0.03 4 0.91 /
35 'ESDC1A' 1 0  5.00 0.020 0.0 0.0  5.0  -5.0  1.00 0.471 0.08 1.25 0.0 3   0.08 4 0.25 /
36 'ESDC1A' 1 0 40.00 0.020 0.0 0.0  6.5  -6.5  1.00 0.730 0.03 1.00 0.0 3   0.03 4 0.74 /
37 'ESDC1A' 1 0  5.00 0.020 0.0 0.0  5.0  -5.0 -0.05 0.528 0.09 1.26 0.0 3   0.09 4 0.28 /
38 'ESDC1A' 1 0 40.00 0.020 0.0 0.0 10.5 -10.5  1.00 1.400 0.03 1.00 0.0 3   0.03 4 0.85 /
30, 'TGOV1', 1, 0.05, 0.4, 1, 0, 1.5, 5, 0/
31, 'TGOV1', 1, 0.05, 0.4, 1, -0.05, 1.5, 5, 0/
32, 'TGOV1', 1, 0.05, 0.4, 1, -0.05, 1.5, 5, 0/
33, 'TGOV1', 1, 0.05, 0.4, 1, -0.05, 1.5, 5, 0/
34, 'TGOV1', 1, 0.05, 0.4, 1, -0.05, 1.5, 5, 0/
35, 'TGOV1', 1, 0.05, 0.4, 1, -0.05, 1.5, 5, 0/
36, 'TGOV1', 1, 0.05, 0.4, 1, -0.05, 1.5, 5, 0/
37, 'TGOV1', 1, 0.05, 0.4, 1, -0.05, 1.5, 5, 0/
38, 'TGOV1', 1, 0.05, 0.4, 1.2, -0.05, 1.5, 5, 0/
39, 'TGOV1', 1, 0.1, 0.8, 1.5, -0.05, 1.5, 5, 0/











